
---------- Begin Simulation Statistics ----------
final_tick                                   49087198                       # Number of ticks from beginning of simulation (restored from checkpoints and never reset)
host_inst_rate                                 129830                       # Simulator instruction rate (inst/s)
host_mem_usage                                 670848                       # Number of bytes of host memory used
host_op_rate                                   146237                       # Simulator op (including micro ops) rate (op/s)
host_seconds                                     0.12                       # Real time elapsed on the host
host_tick_rate                              420602886                       # Simulator tick rate (ticks/s)
sim_freq                                 1000000000000                       # Frequency of simulated ticks
sim_insts                                       15136                       # Number of instructions simulated
sim_ops                                         17064                       # Number of ops (including micro ops) simulated
sim_seconds                                  0.000049                       # Number of seconds simulated
sim_ticks                                    49087198                       # Number of ticks simulated
system.cpu.committedInsts                       15136                       # Number of instructions committed
system.cpu.committedOps                         17064                       # Number of ops (including micro ops) committed
system.cpu.cpi                               4.862183                       # CPI: cycles per instruction
system.cpu.discardedOps                          2819                       # Number of ops (including micro ops) which were discarded before commit
system.cpu.idleCycles                           47722                       # Total number of cycles that the object has spent stopped
system.cpu.ipc                               0.205669                       # IPC: instructions per cycle
system.cpu.numCycles                            73594                       # number of cpu cycles simulated
system.cpu.numFetchSuspends                         0                       # Number of times Execute suspended instruction fetching
system.cpu.numWorkItemsCompleted                    0                       # number of work items this cpu completed
system.cpu.numWorkItemsStarted                      0                       # number of work items this cpu started
system.cpu.op_class_0::No_OpClass                   0      0.00%      0.00% # Class of committed instruction
system.cpu.op_class_0::IntAlu                   11808     69.20%     69.20% # Class of committed instruction
system.cpu.op_class_0::IntMult                    125      0.73%     69.93% # Class of committed instruction
system.cpu.op_class_0::IntDiv                       0      0.00%     69.93% # Class of committed instruction
system.cpu.op_class_0::FloatAdd                     0      0.00%     69.93% # Class of committed instruction
system.cpu.op_class_0::FloatCmp                     0      0.00%     69.93% # Class of committed instruction
system.cpu.op_class_0::FloatCvt                     0      0.00%     69.93% # Class of committed instruction
system.cpu.op_class_0::FloatMult                    0      0.00%     69.93% # Class of committed instruction
system.cpu.op_class_0::FloatMultAcc                 0      0.00%     69.93% # Class of committed instruction
system.cpu.op_class_0::FloatDiv                     0      0.00%     69.93% # Class of committed instruction
system.cpu.op_class_0::FloatMisc                    0      0.00%     69.93% # Class of committed instruction
system.cpu.op_class_0::FloatSqrt                    0      0.00%     69.93% # Class of committed instruction
system.cpu.op_class_0::SimdAdd                      0      0.00%     69.93% # Class of committed instruction
system.cpu.op_class_0::SimdAddAcc                   0      0.00%     69.93% # Class of committed instruction
system.cpu.op_class_0::SimdAlu                      0      0.00%     69.93% # Class of committed instruction
system.cpu.op_class_0::SimdCmp                      0      0.00%     69.93% # Class of committed instruction
system.cpu.op_class_0::SimdCvt                      0      0.00%     69.93% # Class of committed instruction
system.cpu.op_class_0::SimdMisc                     0      0.00%     69.93% # Class of committed instruction
system.cpu.op_class_0::SimdMult                     0      0.00%     69.93% # Class of committed instruction
system.cpu.op_class_0::SimdMultAcc                  0      0.00%     69.93% # Class of committed instruction
system.cpu.op_class_0::SimdShift                    0      0.00%     69.93% # Class of committed instruction
system.cpu.op_class_0::SimdShiftAcc                 0      0.00%     69.93% # Class of committed instruction
system.cpu.op_class_0::SimdDiv                      0      0.00%     69.93% # Class of committed instruction
system.cpu.op_class_0::SimdSqrt                     0      0.00%     69.93% # Class of committed instruction
system.cpu.op_class_0::SimdFloatAdd                 0      0.00%     69.93% # Class of committed instruction
system.cpu.op_class_0::SimdFloatAlu                 0      0.00%     69.93% # Class of committed instruction
system.cpu.op_class_0::SimdFloatCmp                 0      0.00%     69.93% # Class of committed instruction
system.cpu.op_class_0::SimdFloatCvt                 2      0.01%     69.94% # Class of committed instruction
system.cpu.op_class_0::SimdFloatDiv                 0      0.00%     69.94% # Class of committed instruction
system.cpu.op_class_0::SimdFloatMisc               27      0.16%     70.10% # Class of committed instruction
system.cpu.op_class_0::SimdFloatMult                0      0.00%     70.10% # Class of committed instruction
system.cpu.op_class_0::SimdFloatMultAcc             0      0.00%     70.10% # Class of committed instruction
system.cpu.op_class_0::SimdFloatSqrt                0      0.00%     70.10% # Class of committed instruction
system.cpu.op_class_0::SimdReduceAdd                0      0.00%     70.10% # Class of committed instruction
system.cpu.op_class_0::SimdReduceAlu                0      0.00%     70.10% # Class of committed instruction
system.cpu.op_class_0::SimdReduceCmp                0      0.00%     70.10% # Class of committed instruction
system.cpu.op_class_0::SimdFloatReduceAdd            0      0.00%     70.10% # Class of committed instruction
system.cpu.op_class_0::SimdFloatReduceCmp            0      0.00%     70.10% # Class of committed instruction
system.cpu.op_class_0::SimdAes                      0      0.00%     70.10% # Class of committed instruction
system.cpu.op_class_0::SimdAesMix                   0      0.00%     70.10% # Class of committed instruction
system.cpu.op_class_0::SimdSha1Hash                 0      0.00%     70.10% # Class of committed instruction
system.cpu.op_class_0::SimdSha1Hash2                0      0.00%     70.10% # Class of committed instruction
system.cpu.op_class_0::SimdSha256Hash               0      0.00%     70.10% # Class of committed instruction
system.cpu.op_class_0::SimdSha256Hash2              0      0.00%     70.10% # Class of committed instruction
system.cpu.op_class_0::SimdShaSigma2                0      0.00%     70.10% # Class of committed instruction
system.cpu.op_class_0::SimdShaSigma3                0      0.00%     70.10% # Class of committed instruction
system.cpu.op_class_0::SimdPredAlu                  0      0.00%     70.10% # Class of committed instruction
system.cpu.op_class_0::MemRead                   2975     17.43%     87.54% # Class of committed instruction
system.cpu.op_class_0::MemWrite                  2127     12.46%    100.00% # Class of committed instruction
system.cpu.op_class_0::FloatMemRead                 0      0.00%    100.00% # Class of committed instruction
system.cpu.op_class_0::FloatMemWrite                0      0.00%    100.00% # Class of committed instruction
system.cpu.op_class_0::IprAccess                    0      0.00%    100.00% # Class of committed instruction
system.cpu.op_class_0::InstPrefetch                 0      0.00%    100.00% # Class of committed instruction
system.cpu.op_class_0::total                    17064                       # Class of committed instruction
system.cpu.tickCycles                           25872                       # Number of cycles that the object actually ticked
system.cpu.workload.numSyscalls                    12                       # Number of system calls
system.membus.snoop_filter.hit_multi_requests            0                       # Number of requests hitting in the snoop filter with multiple (>1) holders of the requested data.
system.membus.snoop_filter.hit_multi_snoops            0                       # Number of snoops hitting in the snoop filter with multiple (>1) holders of the requested data.
system.membus.snoop_filter.hit_single_requests            0                       # Number of requests hitting in the snoop filter with a single holder of the requested data.
system.membus.snoop_filter.hit_single_snoops            0                       # Number of snoops hitting in the snoop filter with a single holder of the requested data.
system.membus.snoop_filter.tot_requests           349                       # Total number of requests made to the snoop filter.
system.membus.snoop_filter.tot_snoops               0                       # Total number of snoops made to the snoop filter.
system.tol2bus.snoop_filter.hit_multi_requests            0                       # Number of requests hitting in the snoop filter with multiple (>1) holders of the requested data.
system.tol2bus.snoop_filter.hit_multi_snoops            0                       # Number of snoops hitting in the snoop filter with multiple (>1) holders of the requested data.
system.tol2bus.snoop_filter.hit_single_requests           27                       # Number of requests hitting in the snoop filter with a single holder of the requested data.
system.tol2bus.snoop_filter.hit_single_snoops            0                       # Number of snoops hitting in the snoop filter with a single holder of the requested data.
system.tol2bus.snoop_filter.tot_requests          376                       # Total number of requests made to the snoop filter.
system.tol2bus.snoop_filter.tot_snoops              0                       # Total number of snoops made to the snoop filter.
system.clk_domain.clock                          1000                       # Clock period in ticks
system.cpu.branchPred.lookups                    4838                       # Number of BP lookups
system.cpu.branchPred.condPredicted              3117                       # Number of conditional branches predicted
system.cpu.branchPred.condIncorrect               859                       # Number of conditional branches incorrect
system.cpu.branchPred.BTBLookups                 2491                       # Number of BTB lookups
system.cpu.branchPred.BTBHits                    1065                       # Number of BTB hits
system.cpu.branchPred.BTBHitPct             42.753914                       # BTB Hit Percentage
system.cpu.branchPred.RASUsed                     413                       # Number of times the RAS was used to get a target.
system.cpu.branchPred.RASIncorrect                  1                       # Number of incorrect RAS predictions.
system.cpu.branchPred.indirectLookups             154                       # Number of indirect predictor lookups.
system.cpu.branchPred.indirectHits                 15                       # Number of indirect target hits.
system.cpu.branchPred.indirectMisses              139                       # Number of indirect misses.
system.cpu.branchPred.indirectMispredicted           64                       # Number of mispredicted indirect branches.
system.cpu.dcache.demand_hits::.cpu.data         5238                       # number of demand (read+write) hits
system.cpu.dcache.demand_hits::total             5238                       # number of demand (read+write) hits
system.cpu.dcache.overall_hits::.cpu.data         5299                       # number of overall hits
system.cpu.dcache.overall_hits::total            5299                       # number of overall hits
system.cpu.dcache.demand_misses::.cpu.data          131                       # number of demand (read+write) misses
system.cpu.dcache.demand_misses::total            131                       # number of demand (read+write) misses
system.cpu.dcache.overall_misses::.cpu.data          146                       # number of overall misses
system.cpu.dcache.overall_misses::total           146                       # number of overall misses
system.cpu.dcache.demand_miss_latency::.cpu.data     13472066                       # number of demand (read+write) miss cycles
system.cpu.dcache.demand_miss_latency::total     13472066                       # number of demand (read+write) miss cycles
system.cpu.dcache.overall_miss_latency::.cpu.data     13472066                       # number of overall miss cycles
system.cpu.dcache.overall_miss_latency::total     13472066                       # number of overall miss cycles
system.cpu.dcache.demand_accesses::.cpu.data         5369                       # number of demand (read+write) accesses
system.cpu.dcache.demand_accesses::total         5369                       # number of demand (read+write) accesses
system.cpu.dcache.overall_accesses::.cpu.data         5445                       # number of overall (read+write) accesses
system.cpu.dcache.overall_accesses::total         5445                       # number of overall (read+write) accesses
system.cpu.dcache.demand_miss_rate::.cpu.data     0.024399                       # miss rate for demand accesses
system.cpu.dcache.demand_miss_rate::total     0.024399                       # miss rate for demand accesses
system.cpu.dcache.overall_miss_rate::.cpu.data     0.026814                       # miss rate for overall accesses
system.cpu.dcache.overall_miss_rate::total     0.026814                       # miss rate for overall accesses
system.cpu.dcache.demand_avg_miss_latency::.cpu.data 102840.198473                       # average overall miss latency
system.cpu.dcache.demand_avg_miss_latency::total 102840.198473                       # average overall miss latency
system.cpu.dcache.overall_avg_miss_latency::.cpu.data 92274.424658                       # average overall miss latency
system.cpu.dcache.overall_avg_miss_latency::total 92274.424658                       # average overall miss latency
system.cpu.dcache.blocked_cycles::no_mshrs            0                       # number of cycles access was blocked
system.cpu.dcache.blocked_cycles::no_targets            0                       # number of cycles access was blocked
system.cpu.dcache.blocked::no_mshrs                 0                       # number of cycles access was blocked
system.cpu.dcache.blocked::no_targets               0                       # number of cycles access was blocked
system.cpu.dcache.avg_blocked_cycles::no_mshrs          nan                       # average number of cycles each access was blocked
system.cpu.dcache.avg_blocked_cycles::no_targets          nan                       # average number of cycles each access was blocked
system.cpu.dcache.demand_mshr_hits::.cpu.data           24                       # number of demand (read+write) MSHR hits
system.cpu.dcache.demand_mshr_hits::total           24                       # number of demand (read+write) MSHR hits
system.cpu.dcache.overall_mshr_hits::.cpu.data           24                       # number of overall MSHR hits
system.cpu.dcache.overall_mshr_hits::total           24                       # number of overall MSHR hits
system.cpu.dcache.demand_mshr_misses::.cpu.data          107                       # number of demand (read+write) MSHR misses
system.cpu.dcache.demand_mshr_misses::total          107                       # number of demand (read+write) MSHR misses
system.cpu.dcache.overall_mshr_misses::.cpu.data          114                       # number of overall MSHR misses
system.cpu.dcache.overall_mshr_misses::total          114                       # number of overall MSHR misses
system.cpu.dcache.demand_mshr_miss_latency::.cpu.data     10849422                       # number of demand (read+write) MSHR miss cycles
system.cpu.dcache.demand_mshr_miss_latency::total     10849422                       # number of demand (read+write) MSHR miss cycles
system.cpu.dcache.overall_mshr_miss_latency::.cpu.data     11607801                       # number of overall MSHR miss cycles
system.cpu.dcache.overall_mshr_miss_latency::total     11607801                       # number of overall MSHR miss cycles
system.cpu.dcache.demand_mshr_miss_rate::.cpu.data     0.019929                       # mshr miss rate for demand accesses
system.cpu.dcache.demand_mshr_miss_rate::total     0.019929                       # mshr miss rate for demand accesses
system.cpu.dcache.overall_mshr_miss_rate::.cpu.data     0.020937                       # mshr miss rate for overall accesses
system.cpu.dcache.overall_mshr_miss_rate::total     0.020937                       # mshr miss rate for overall accesses
system.cpu.dcache.demand_avg_mshr_miss_latency::.cpu.data 101396.467290                       # average overall mshr miss latency
system.cpu.dcache.demand_avg_mshr_miss_latency::total 101396.467290                       # average overall mshr miss latency
system.cpu.dcache.overall_avg_mshr_miss_latency::.cpu.data 101822.815789                       # average overall mshr miss latency
system.cpu.dcache.overall_avg_mshr_miss_latency::total 101822.815789                       # average overall mshr miss latency
system.cpu.dcache.replacements                      0                       # number of replacements
system.cpu.dcache.ReadReq_hits::.cpu.data         3232                       # number of ReadReq hits
system.cpu.dcache.ReadReq_hits::total            3232                       # number of ReadReq hits
system.cpu.dcache.ReadReq_misses::.cpu.data           85                       # number of ReadReq misses
system.cpu.dcache.ReadReq_misses::total            85                       # number of ReadReq misses
system.cpu.dcache.ReadReq_miss_latency::.cpu.data      8315489                       # number of ReadReq miss cycles
system.cpu.dcache.ReadReq_miss_latency::total      8315489                       # number of ReadReq miss cycles
system.cpu.dcache.ReadReq_accesses::.cpu.data         3317                       # number of ReadReq accesses(hits+misses)
system.cpu.dcache.ReadReq_accesses::total         3317                       # number of ReadReq accesses(hits+misses)
system.cpu.dcache.ReadReq_miss_rate::.cpu.data     0.025626                       # miss rate for ReadReq accesses
system.cpu.dcache.ReadReq_miss_rate::total     0.025626                       # miss rate for ReadReq accesses
system.cpu.dcache.ReadReq_avg_miss_latency::.cpu.data 97829.282353                       # average ReadReq miss latency
system.cpu.dcache.ReadReq_avg_miss_latency::total 97829.282353                       # average ReadReq miss latency
system.cpu.dcache.ReadReq_mshr_hits::.cpu.data            8                       # number of ReadReq MSHR hits
system.cpu.dcache.ReadReq_mshr_hits::total            8                       # number of ReadReq MSHR hits
system.cpu.dcache.ReadReq_mshr_misses::.cpu.data           77                       # number of ReadReq MSHR misses
system.cpu.dcache.ReadReq_mshr_misses::total           77                       # number of ReadReq MSHR misses
system.cpu.dcache.ReadReq_mshr_miss_latency::.cpu.data      7387692                       # number of ReadReq MSHR miss cycles
system.cpu.dcache.ReadReq_mshr_miss_latency::total      7387692                       # number of ReadReq MSHR miss cycles
system.cpu.dcache.ReadReq_mshr_miss_rate::.cpu.data     0.023214                       # mshr miss rate for ReadReq accesses
system.cpu.dcache.ReadReq_mshr_miss_rate::total     0.023214                       # mshr miss rate for ReadReq accesses
system.cpu.dcache.ReadReq_avg_mshr_miss_latency::.cpu.data 95944.051948                       # average ReadReq mshr miss latency
system.cpu.dcache.ReadReq_avg_mshr_miss_latency::total 95944.051948                       # average ReadReq mshr miss latency
system.cpu.dcache.WriteReq_hits::.cpu.data         2006                       # number of WriteReq hits
system.cpu.dcache.WriteReq_hits::total           2006                       # number of WriteReq hits
system.cpu.dcache.WriteReq_misses::.cpu.data           46                       # number of WriteReq misses
system.cpu.dcache.WriteReq_misses::total           46                       # number of WriteReq misses
system.cpu.dcache.WriteReq_miss_latency::.cpu.data      5156577                       # number of WriteReq miss cycles
system.cpu.dcache.WriteReq_miss_latency::total      5156577                       # number of WriteReq miss cycles
system.cpu.dcache.WriteReq_accesses::.cpu.data         2052                       # number of WriteReq accesses(hits+misses)
system.cpu.dcache.WriteReq_accesses::total         2052                       # number of WriteReq accesses(hits+misses)
system.cpu.dcache.WriteReq_miss_rate::.cpu.data     0.022417                       # miss rate for WriteReq accesses
system.cpu.dcache.WriteReq_miss_rate::total     0.022417                       # miss rate for WriteReq accesses
system.cpu.dcache.WriteReq_avg_miss_latency::.cpu.data 112099.500000                       # average WriteReq miss latency
system.cpu.dcache.WriteReq_avg_miss_latency::total 112099.500000                       # average WriteReq miss latency
system.cpu.dcache.WriteReq_mshr_hits::.cpu.data           16                       # number of WriteReq MSHR hits
system.cpu.dcache.WriteReq_mshr_hits::total           16                       # number of WriteReq MSHR hits
system.cpu.dcache.WriteReq_mshr_misses::.cpu.data           30                       # number of WriteReq MSHR misses
system.cpu.dcache.WriteReq_mshr_misses::total           30                       # number of WriteReq MSHR misses
system.cpu.dcache.WriteReq_mshr_miss_latency::.cpu.data      3461730                       # number of WriteReq MSHR miss cycles
system.cpu.dcache.WriteReq_mshr_miss_latency::total      3461730                       # number of WriteReq MSHR miss cycles
system.cpu.dcache.WriteReq_mshr_miss_rate::.cpu.data     0.014620                       # mshr miss rate for WriteReq accesses
system.cpu.dcache.WriteReq_mshr_miss_rate::total     0.014620                       # mshr miss rate for WriteReq accesses
system.cpu.dcache.WriteReq_avg_mshr_miss_latency::.cpu.data       115391                       # average WriteReq mshr miss latency
system.cpu.dcache.WriteReq_avg_mshr_miss_latency::total       115391                       # average WriteReq mshr miss latency
system.cpu.dcache.SoftPFReq_hits::.cpu.data           61                       # number of SoftPFReq hits
system.cpu.dcache.SoftPFReq_hits::total            61                       # number of SoftPFReq hits
system.cpu.dcache.SoftPFReq_misses::.cpu.data           15                       # number of SoftPFReq misses
system.cpu.dcache.SoftPFReq_misses::total           15                       # number of SoftPFReq misses
system.cpu.dcache.SoftPFReq_accesses::.cpu.data           76                       # number of SoftPFReq accesses(hits+misses)
system.cpu.dcache.SoftPFReq_accesses::total           76                       # number of SoftPFReq accesses(hits+misses)
system.cpu.dcache.SoftPFReq_miss_rate::.cpu.data     0.197368                       # miss rate for SoftPFReq accesses
system.cpu.dcache.SoftPFReq_miss_rate::total     0.197368                       # miss rate for SoftPFReq accesses
system.cpu.dcache.SoftPFReq_mshr_misses::.cpu.data            7                       # number of SoftPFReq MSHR misses
system.cpu.dcache.SoftPFReq_mshr_misses::total            7                       # number of SoftPFReq MSHR misses
system.cpu.dcache.SoftPFReq_mshr_miss_latency::.cpu.data       758379                       # number of SoftPFReq MSHR miss cycles
system.cpu.dcache.SoftPFReq_mshr_miss_latency::total       758379                       # number of SoftPFReq MSHR miss cycles
system.cpu.dcache.SoftPFReq_mshr_miss_rate::.cpu.data     0.092105                       # mshr miss rate for SoftPFReq accesses
system.cpu.dcache.SoftPFReq_mshr_miss_rate::total     0.092105                       # mshr miss rate for SoftPFReq accesses
system.cpu.dcache.SoftPFReq_avg_mshr_miss_latency::.cpu.data 108339.857143                       # average SoftPFReq mshr miss latency
system.cpu.dcache.SoftPFReq_avg_mshr_miss_latency::total 108339.857143                       # average SoftPFReq mshr miss latency
system.cpu.dcache.LoadLockedReq_hits::.cpu.data           20                       # number of LoadLockedReq hits
system.cpu.dcache.LoadLockedReq_hits::total           20                       # number of LoadLockedReq hits
system.cpu.dcache.LoadLockedReq_accesses::.cpu.data           20                       # number of LoadLockedReq accesses(hits+misses)
system.cpu.dcache.LoadLockedReq_accesses::total           20                       # number of LoadLockedReq accesses(hits+misses)
system.cpu.dcache.StoreCondReq_hits::.cpu.data           20                       # number of StoreCondReq hits
system.cpu.dcache.StoreCondReq_hits::total           20                       # number of StoreCondReq hits
system.cpu.dcache.StoreCondReq_accesses::.cpu.data           20                       # number of StoreCondReq accesses(hits+misses)
system.cpu.dcache.StoreCondReq_accesses::total           20                       # number of StoreCondReq accesses(hits+misses)
system.cpu.dcache.power_state.pwrStateResidencyTicks::UNDEFINED     49087198                       # Cumulative time (in ticks) in various power states
system.cpu.dcache.tags.tagsinuse            64.840423                       # Cycle average of tags in use
system.cpu.dcache.tags.total_refs                5453                       # Total number of references to valid blocks.
system.cpu.dcache.tags.sampled_refs               114                       # Sample count of references to valid blocks.
system.cpu.dcache.tags.avg_refs             47.833333                       # Average number of references to valid blocks.
system.cpu.dcache.tags.warmup_cycle            229448                       # Cycle when the warmup percentage was hit.
system.cpu.dcache.tags.occ_blocks::.cpu.data    64.840423                       # Average occupied blocks per requestor
system.cpu.dcache.tags.occ_percent::.cpu.data     0.126641                       # Average percentage of cache occupancy
system.cpu.dcache.tags.occ_percent::total     0.126641                       # Average percentage of cache occupancy
system.cpu.dcache.tags.occ_task_id_blocks::1024          114                       # Occupied blocks per task id
system.cpu.dcache.tags.age_task_id_blocks_1024::0           21                       # Occupied blocks per task id
system.cpu.dcache.tags.age_task_id_blocks_1024::1           93                       # Occupied blocks per task id
system.cpu.dcache.tags.occ_task_id_percent::1024     0.222656                       # Percentage of cache occupancy per task id
system.cpu.dcache.tags.tag_accesses             43994                       # Number of tag accesses
system.cpu.dcache.tags.data_accesses            43994                       # Number of data accesses
system.cpu.dcache.tags.power_state.pwrStateResidencyTicks::UNDEFINED     49087198                       # Cumulative time (in ticks) in various power states
system.cpu.dtb.instHits                             0                       # ITB inst hits
system.cpu.dtb.instMisses                           0                       # ITB inst misses
system.cpu.dtb.readHits                             0                       # DTB read hits
system.cpu.dtb.readMisses                           0                       # DTB read misses
system.cpu.dtb.writeHits                            0                       # DTB write hits
system.cpu.dtb.writeMisses                          0                       # DTB write misses
system.cpu.dtb.inserts                              0                       # Number of times an entry is inserted into the TLB
system.cpu.dtb.flushTlb                             0                       # Number of times complete TLB was flushed
system.cpu.dtb.flushTlbMva                          0                       # Number of times TLB was flushed by MVA
system.cpu.dtb.flushTlbMvaAsid                      0                       # Number of times TLB was flushed by MVA & ASID
system.cpu.dtb.flushTlbAsid                         0                       # Number of times TLB was flushed by ASID
system.cpu.dtb.flushedEntries                       0                       # Number of entries that have been flushed from TLB
system.cpu.dtb.alignFaults                          0                       # Number of TLB faults due to alignment restrictions
system.cpu.dtb.prefetchFaults                       0                       # Number of TLB faults due to prefetch
system.cpu.dtb.domainFaults                         0                       # Number of TLB faults due to domain restrictions
system.cpu.dtb.permsFaults                          0                       # Number of TLB faults due to permissions restrictions
system.cpu.dtb.readAccesses                         0                       # DTB read accesses
system.cpu.dtb.writeAccesses                        0                       # DTB write accesses
system.cpu.dtb.instAccesses                         0                       # ITB inst accesses
system.cpu.dtb.hits                                 0                       # Total TLB (inst and data) hits
system.cpu.dtb.misses                               0                       # Total TLB (inst and data) misses
system.cpu.dtb.accesses                             0                       # Total TLB (inst and data) accesses
system.cpu.dtb.stage2_mmu.stage2_tlb.instHits            0                       # ITB inst hits
system.cpu.dtb.stage2_mmu.stage2_tlb.instMisses            0                       # ITB inst misses
system.cpu.dtb.stage2_mmu.stage2_tlb.readHits            0                       # DTB read hits
system.cpu.dtb.stage2_mmu.stage2_tlb.readMisses            0                       # DTB read misses
system.cpu.dtb.stage2_mmu.stage2_tlb.writeHits            0                       # DTB write hits
system.cpu.dtb.stage2_mmu.stage2_tlb.writeMisses            0                       # DTB write misses
system.cpu.dtb.stage2_mmu.stage2_tlb.inserts            0                       # Number of times an entry is inserted into the TLB
system.cpu.dtb.stage2_mmu.stage2_tlb.flushTlb            0                       # Number of times complete TLB was flushed
system.cpu.dtb.stage2_mmu.stage2_tlb.flushTlbMva            0                       # Number of times TLB was flushed by MVA
system.cpu.dtb.stage2_mmu.stage2_tlb.flushTlbMvaAsid            0                       # Number of times TLB was flushed by MVA & ASID
system.cpu.dtb.stage2_mmu.stage2_tlb.flushTlbAsid            0                       # Number of times TLB was flushed by ASID
system.cpu.dtb.stage2_mmu.stage2_tlb.flushedEntries            0                       # Number of entries that have been flushed from TLB
system.cpu.dtb.stage2_mmu.stage2_tlb.alignFaults            0                       # Number of TLB faults due to alignment restrictions
system.cpu.dtb.stage2_mmu.stage2_tlb.prefetchFaults            0                       # Number of TLB faults due to prefetch
system.cpu.dtb.stage2_mmu.stage2_tlb.domainFaults            0                       # Number of TLB faults due to domain restrictions
system.cpu.dtb.stage2_mmu.stage2_tlb.permsFaults            0                       # Number of TLB faults due to permissions restrictions
system.cpu.dtb.stage2_mmu.stage2_tlb.readAccesses            0                       # DTB read accesses
system.cpu.dtb.stage2_mmu.stage2_tlb.writeAccesses            0                       # DTB write accesses
system.cpu.dtb.stage2_mmu.stage2_tlb.instAccesses            0                       # ITB inst accesses
system.cpu.dtb.stage2_mmu.stage2_tlb.hits            0                       # Total TLB (inst and data) hits
system.cpu.dtb.stage2_mmu.stage2_tlb.misses            0                       # Total TLB (inst and data) misses
system.cpu.dtb.stage2_mmu.stage2_tlb.accesses            0                       # Total TLB (inst and data) accesses
system.cpu.dtb.stage2_mmu.stage2_tlb.walker.walks            0                       # Table walker walks requested
system.cpu.dtb.stage2_mmu.stage2_tlb.walker.requestOrigin_Requested::Data            0                       # Table walker requests started/completed, data/inst
system.cpu.dtb.stage2_mmu.stage2_tlb.walker.requestOrigin_Requested::Inst            0                       # Table walker requests started/completed, data/inst
system.cpu.dtb.stage2_mmu.stage2_tlb.walker.requestOrigin_Requested::total            0                       # Table walker requests started/completed, data/inst
system.cpu.dtb.stage2_mmu.stage2_tlb.walker.requestOrigin_Completed::Data            0                       # Table walker requests started/completed, data/inst
system.cpu.dtb.stage2_mmu.stage2_tlb.walker.requestOrigin_Completed::Inst            0                       # Table walker requests started/completed, data/inst
system.cpu.dtb.stage2_mmu.stage2_tlb.walker.requestOrigin_Completed::total            0                       # Table walker requests started/completed, data/inst
system.cpu.dtb.stage2_mmu.stage2_tlb.walker.requestOrigin::total            0                       # Table walker requests started/completed, data/inst
system.cpu.dtb.stage2_mmu.stage2_tlb.walker.power_state.pwrStateResidencyTicks::UNDEFINED     49087198                       # Cumulative time (in ticks) in various power states
system.cpu.dtb.walker.walks                         0                       # Table walker walks requested
system.cpu.dtb.walker.requestOrigin_Requested::Data            0                       # Table walker requests started/completed, data/inst
system.cpu.dtb.walker.requestOrigin_Requested::Inst            0                       # Table walker requests started/completed, data/inst
system.cpu.dtb.walker.requestOrigin_Requested::total            0                       # Table walker requests started/completed, data/inst
system.cpu.dtb.walker.requestOrigin_Completed::Data            0                       # Table walker requests started/completed, data/inst
system.cpu.dtb.walker.requestOrigin_Completed::Inst            0                       # Table walker requests started/completed, data/inst
system.cpu.dtb.walker.requestOrigin_Completed::total            0                       # Table walker requests started/completed, data/inst
system.cpu.dtb.walker.requestOrigin::total            0                       # Table walker requests started/completed, data/inst
system.cpu.dtb.walker.power_state.pwrStateResidencyTicks::UNDEFINED     49087198                       # Cumulative time (in ticks) in various power states
system.cpu.fetch2.intInstructions               15576                       # Number of integer instructions successfully decoded
system.cpu.fetch2.fpInstructions                    0                       # Number of floating point instructions successfully decoded
system.cpu.fetch2.vecInstructions                   0                       # Number of SIMD instructions successfully decoded
system.cpu.fetch2.loadInstructions               4233                       # Number of memory load instructions successfully decoded
system.cpu.fetch2.storeInstructions              1832                       # Number of memory store instructions successfully decoded
system.cpu.fetch2.amoInstructions                   0                       # Number of memory atomic instructions successfully decoded
system.cpu.icache.demand_hits::.cpu.inst         5015                       # number of demand (read+write) hits
system.cpu.icache.demand_hits::total             5015                       # number of demand (read+write) hits
system.cpu.icache.overall_hits::.cpu.inst         5015                       # number of overall hits
system.cpu.icache.overall_hits::total            5015                       # number of overall hits
system.cpu.icache.demand_misses::.cpu.inst          262                       # number of demand (read+write) misses
system.cpu.icache.demand_misses::total            262                       # number of demand (read+write) misses
system.cpu.icache.overall_misses::.cpu.inst          262                       # number of overall misses
system.cpu.icache.overall_misses::total           262                       # number of overall misses
system.cpu.icache.demand_miss_latency::.cpu.inst     27496408                       # number of demand (read+write) miss cycles
system.cpu.icache.demand_miss_latency::total     27496408                       # number of demand (read+write) miss cycles
system.cpu.icache.overall_miss_latency::.cpu.inst     27496408                       # number of overall miss cycles
system.cpu.icache.overall_miss_latency::total     27496408                       # number of overall miss cycles
system.cpu.icache.demand_accesses::.cpu.inst         5277                       # number of demand (read+write) accesses
system.cpu.icache.demand_accesses::total         5277                       # number of demand (read+write) accesses
system.cpu.icache.overall_accesses::.cpu.inst         5277                       # number of overall (read+write) accesses
system.cpu.icache.overall_accesses::total         5277                       # number of overall (read+write) accesses
system.cpu.icache.demand_miss_rate::.cpu.inst     0.049649                       # miss rate for demand accesses
system.cpu.icache.demand_miss_rate::total     0.049649                       # miss rate for demand accesses
system.cpu.icache.overall_miss_rate::.cpu.inst     0.049649                       # miss rate for overall accesses
system.cpu.icache.overall_miss_rate::total     0.049649                       # miss rate for overall accesses
system.cpu.icache.demand_avg_miss_latency::.cpu.inst 104948.122137                       # average overall miss latency
system.cpu.icache.demand_avg_miss_latency::total 104948.122137                       # average overall miss latency
system.cpu.icache.overall_avg_miss_latency::.cpu.inst 104948.122137                       # average overall miss latency
system.cpu.icache.overall_avg_miss_latency::total 104948.122137                       # average overall miss latency
system.cpu.icache.blocked_cycles::no_mshrs            0                       # number of cycles access was blocked
system.cpu.icache.blocked_cycles::no_targets            0                       # number of cycles access was blocked
system.cpu.icache.blocked::no_mshrs                 0                       # number of cycles access was blocked
system.cpu.icache.blocked::no_targets               0                       # number of cycles access was blocked
system.cpu.icache.avg_blocked_cycles::no_mshrs          nan                       # average number of cycles each access was blocked
system.cpu.icache.avg_blocked_cycles::no_targets          nan                       # average number of cycles each access was blocked
system.cpu.icache.demand_mshr_misses::.cpu.inst          262                       # number of demand (read+write) MSHR misses
system.cpu.icache.demand_mshr_misses::total          262                       # number of demand (read+write) MSHR misses
system.cpu.icache.overall_mshr_misses::.cpu.inst          262                       # number of overall MSHR misses
system.cpu.icache.overall_mshr_misses::total          262                       # number of overall MSHR misses
system.cpu.icache.demand_mshr_miss_latency::.cpu.inst     27146900                       # number of demand (read+write) MSHR miss cycles
system.cpu.icache.demand_mshr_miss_latency::total     27146900                       # number of demand (read+write) MSHR miss cycles
system.cpu.icache.overall_mshr_miss_latency::.cpu.inst     27146900                       # number of overall MSHR miss cycles
system.cpu.icache.overall_mshr_miss_latency::total     27146900                       # number of overall MSHR miss cycles
system.cpu.icache.demand_mshr_miss_rate::.cpu.inst     0.049649                       # mshr miss rate for demand accesses
system.cpu.icache.demand_mshr_miss_rate::total     0.049649                       # mshr miss rate for demand accesses
system.cpu.icache.overall_mshr_miss_rate::.cpu.inst     0.049649                       # mshr miss rate for overall accesses
system.cpu.icache.overall_mshr_miss_rate::total     0.049649                       # mshr miss rate for overall accesses
system.cpu.icache.demand_avg_mshr_miss_latency::.cpu.inst 103614.122137                       # average overall mshr miss latency
system.cpu.icache.demand_avg_mshr_miss_latency::total 103614.122137                       # average overall mshr miss latency
system.cpu.icache.overall_avg_mshr_miss_latency::.cpu.inst 103614.122137                       # average overall mshr miss latency
system.cpu.icache.overall_avg_mshr_miss_latency::total 103614.122137                       # average overall mshr miss latency
system.cpu.icache.replacements                      0                       # number of replacements
system.cpu.icache.ReadReq_hits::.cpu.inst         5015                       # number of ReadReq hits
system.cpu.icache.ReadReq_hits::total            5015                       # number of ReadReq hits
system.cpu.icache.ReadReq_misses::.cpu.inst          262                       # number of ReadReq misses
system.cpu.icache.ReadReq_misses::total           262                       # number of ReadReq misses
system.cpu.icache.ReadReq_miss_latency::.cpu.inst     27496408                       # number of ReadReq miss cycles
system.cpu.icache.ReadReq_miss_latency::total     27496408                       # number of ReadReq miss cycles
system.cpu.icache.ReadReq_accesses::.cpu.inst         5277                       # number of ReadReq accesses(hits+misses)
system.cpu.icache.ReadReq_accesses::total         5277                       # number of ReadReq accesses(hits+misses)
system.cpu.icache.ReadReq_miss_rate::.cpu.inst     0.049649                       # miss rate for ReadReq accesses
system.cpu.icache.ReadReq_miss_rate::total     0.049649                       # miss rate for ReadReq accesses
system.cpu.icache.ReadReq_avg_miss_latency::.cpu.inst 104948.122137                       # average ReadReq miss latency
system.cpu.icache.ReadReq_avg_miss_latency::total 104948.122137                       # average ReadReq miss latency
system.cpu.icache.ReadReq_mshr_misses::.cpu.inst          262                       # number of ReadReq MSHR misses
system.cpu.icache.ReadReq_mshr_misses::total          262                       # number of ReadReq MSHR misses
system.cpu.icache.ReadReq_mshr_miss_latency::.cpu.inst     27146900                       # number of ReadReq MSHR miss cycles
system.cpu.icache.ReadReq_mshr_miss_latency::total     27146900                       # number of ReadReq MSHR miss cycles
system.cpu.icache.ReadReq_mshr_miss_rate::.cpu.inst     0.049649                       # mshr miss rate for ReadReq accesses
system.cpu.icache.ReadReq_mshr_miss_rate::total     0.049649                       # mshr miss rate for ReadReq accesses
system.cpu.icache.ReadReq_avg_mshr_miss_latency::.cpu.inst 103614.122137                       # average ReadReq mshr miss latency
system.cpu.icache.ReadReq_avg_mshr_miss_latency::total 103614.122137                       # average ReadReq mshr miss latency
system.cpu.icache.power_state.pwrStateResidencyTicks::UNDEFINED     49087198                       # Cumulative time (in ticks) in various power states
system.cpu.icache.tags.tagsinuse           133.838400                       # Cycle average of tags in use
system.cpu.icache.tags.total_refs                5277                       # Total number of references to valid blocks.
system.cpu.icache.tags.sampled_refs               262                       # Sample count of references to valid blocks.
system.cpu.icache.tags.avg_refs             20.141221                       # Average number of references to valid blocks.
system.cpu.icache.tags.warmup_cycle            109388                       # Cycle when the warmup percentage was hit.
system.cpu.icache.tags.occ_blocks::.cpu.inst   133.838400                       # Average occupied blocks per requestor
system.cpu.icache.tags.occ_percent::.cpu.inst     0.261403                       # Average percentage of cache occupancy
system.cpu.icache.tags.occ_percent::total     0.261403                       # Average percentage of cache occupancy
system.cpu.icache.tags.occ_task_id_blocks::1024          262                       # Occupied blocks per task id
system.cpu.icache.tags.age_task_id_blocks_1024::0           60                       # Occupied blocks per task id
system.cpu.icache.tags.age_task_id_blocks_1024::1          202                       # Occupied blocks per task id
system.cpu.icache.tags.occ_task_id_percent::1024     0.511719                       # Percentage of cache occupancy per task id
system.cpu.icache.tags.tag_accesses             42478                       # Number of tag accesses
system.cpu.icache.tags.data_accesses            42478                       # Number of data accesses
system.cpu.icache.tags.power_state.pwrStateResidencyTicks::UNDEFINED     49087198                       # Cumulative time (in ticks) in various power states
system.cpu.itb.instHits                             0                       # ITB inst hits
system.cpu.itb.instMisses                           0                       # ITB inst misses
system.cpu.itb.readHits                             0                       # DTB read hits
system.cpu.itb.readMisses                           0                       # DTB read misses
system.cpu.itb.writeHits                            0                       # DTB write hits
system.cpu.itb.writeMisses                          0                       # DTB write misses
system.cpu.itb.inserts                              0                       # Number of times an entry is inserted into the TLB
system.cpu.itb.flushTlb                             0                       # Number of times complete TLB was flushed
system.cpu.itb.flushTlbMva                          0                       # Number of times TLB was flushed by MVA
system.cpu.itb.flushTlbMvaAsid                      0                       # Number of times TLB was flushed by MVA & ASID
system.cpu.itb.flushTlbAsid                         0                       # Number of times TLB was flushed by ASID
system.cpu.itb.flushedEntries                       0                       # Number of entries that have been flushed from TLB
system.cpu.itb.alignFaults                          0                       # Number of TLB faults due to alignment restrictions
system.cpu.itb.prefetchFaults                       0                       # Number of TLB faults due to prefetch
system.cpu.itb.domainFaults                         0                       # Number of TLB faults due to domain restrictions
system.cpu.itb.permsFaults                          0                       # Number of TLB faults due to permissions restrictions
system.cpu.itb.readAccesses                         0                       # DTB read accesses
system.cpu.itb.writeAccesses                        0                       # DTB write accesses
system.cpu.itb.instAccesses                         0                       # ITB inst accesses
system.cpu.itb.hits                                 0                       # Total TLB (inst and data) hits
system.cpu.itb.misses                               0                       # Total TLB (inst and data) misses
system.cpu.itb.accesses                             0                       # Total TLB (inst and data) accesses
system.cpu.itb.stage2_mmu.stage2_tlb.instHits            0                       # ITB inst hits
system.cpu.itb.stage2_mmu.stage2_tlb.instMisses            0                       # ITB inst misses
system.cpu.itb.stage2_mmu.stage2_tlb.readHits            0                       # DTB read hits
system.cpu.itb.stage2_mmu.stage2_tlb.readMisses            0                       # DTB read misses
system.cpu.itb.stage2_mmu.stage2_tlb.writeHits            0                       # DTB write hits
system.cpu.itb.stage2_mmu.stage2_tlb.writeMisses            0                       # DTB write misses
system.cpu.itb.stage2_mmu.stage2_tlb.inserts            0                       # Number of times an entry is inserted into the TLB
system.cpu.itb.stage2_mmu.stage2_tlb.flushTlb            0                       # Number of times complete TLB was flushed
system.cpu.itb.stage2_mmu.stage2_tlb.flushTlbMva            0                       # Number of times TLB was flushed by MVA
system.cpu.itb.stage2_mmu.stage2_tlb.flushTlbMvaAsid            0                       # Number of times TLB was flushed by MVA & ASID
system.cpu.itb.stage2_mmu.stage2_tlb.flushTlbAsid            0                       # Number of times TLB was flushed by ASID
system.cpu.itb.stage2_mmu.stage2_tlb.flushedEntries            0                       # Number of entries that have been flushed from TLB
system.cpu.itb.stage2_mmu.stage2_tlb.alignFaults            0                       # Number of TLB faults due to alignment restrictions
system.cpu.itb.stage2_mmu.stage2_tlb.prefetchFaults            0                       # Number of TLB faults due to prefetch
system.cpu.itb.stage2_mmu.stage2_tlb.domainFaults            0                       # Number of TLB faults due to domain restrictions
system.cpu.itb.stage2_mmu.stage2_tlb.permsFaults            0                       # Number of TLB faults due to permissions restrictions
system.cpu.itb.stage2_mmu.stage2_tlb.readAccesses            0                       # DTB read accesses
system.cpu.itb.stage2_mmu.stage2_tlb.writeAccesses            0                       # DTB write accesses
system.cpu.itb.stage2_mmu.stage2_tlb.instAccesses            0                       # ITB inst accesses
system.cpu.itb.stage2_mmu.stage2_tlb.hits            0                       # Total TLB (inst and data) hits
system.cpu.itb.stage2_mmu.stage2_tlb.misses            0                       # Total TLB (inst and data) misses
system.cpu.itb.stage2_mmu.stage2_tlb.accesses            0                       # Total TLB (inst and data) accesses
system.cpu.itb.stage2_mmu.stage2_tlb.walker.walks            0                       # Table walker walks requested
system.cpu.itb.stage2_mmu.stage2_tlb.walker.requestOrigin_Requested::Data            0                       # Table walker requests started/completed, data/inst
system.cpu.itb.stage2_mmu.stage2_tlb.walker.requestOrigin_Requested::Inst            0                       # Table walker requests started/completed, data/inst
system.cpu.itb.stage2_mmu.stage2_tlb.walker.requestOrigin_Requested::total            0                       # Table walker requests started/completed, data/inst
system.cpu.itb.stage2_mmu.stage2_tlb.walker.requestOrigin_Completed::Data            0                       # Table walker requests started/completed, data/inst
system.cpu.itb.stage2_mmu.stage2_tlb.walker.requestOrigin_Completed::Inst            0                       # Table walker requests started/completed, data/inst
system.cpu.itb.stage2_mmu.stage2_tlb.walker.requestOrigin_Completed::total            0                       # Table walker requests started/completed, data/inst
system.cpu.itb.stage2_mmu.stage2_tlb.walker.requestOrigin::total            0                       # Table walker requests started/completed, data/inst
system.cpu.itb.stage2_mmu.stage2_tlb.walker.power_state.pwrStateResidencyTicks::UNDEFINED     49087198                       # Cumulative time (in ticks) in various power states
system.cpu.itb.walker.walks                         0                       # Table walker walks requested
system.cpu.itb.walker.requestOrigin_Requested::Data            0                       # Table walker requests started/completed, data/inst
system.cpu.itb.walker.requestOrigin_Requested::Inst            0                       # Table walker requests started/completed, data/inst
system.cpu.itb.walker.requestOrigin_Requested::total            0                       # Table walker requests started/completed, data/inst
system.cpu.itb.walker.requestOrigin_Completed::Data            0                       # Table walker requests started/completed, data/inst
system.cpu.itb.walker.requestOrigin_Completed::Inst            0                       # Table walker requests started/completed, data/inst
system.cpu.itb.walker.requestOrigin_Completed::total            0                       # Table walker requests started/completed, data/inst
system.cpu.itb.walker.requestOrigin::total            0                       # Table walker requests started/completed, data/inst
system.cpu.itb.walker.power_state.pwrStateResidencyTicks::UNDEFINED     49087198                       # Cumulative time (in ticks) in various power states
system.cpu.power_state.pwrStateResidencyTicks::ON     49087198                       # Cumulative time (in ticks) in various power states
system.cpu.thread_0.numInsts                    15136                       # Number of Instructions committed
system.cpu.thread_0.numOps                      17064                       # Number of Ops committed
system.cpu.thread_0.numMemRefs                      0                       # Number of Memory References
system.cpu_clk_domain.clock                       667                       # Clock period in ticks
system.cpu_voltage_domain.voltage                   1                       # Voltage in Volts
system.l2.demand_hits::.cpu.inst                    7                       # number of demand (read+write) hits
system.l2.demand_hits::.cpu.data                   17                       # number of demand (read+write) hits
system.l2.demand_hits::total                       24                       # number of demand (read+write) hits
system.l2.overall_hits::.cpu.inst                   7                       # number of overall hits
system.l2.overall_hits::.cpu.data                  17                       # number of overall hits
system.l2.overall_hits::total                      24                       # number of overall hits
system.l2.demand_misses::.cpu.inst                255                       # number of demand (read+write) misses
system.l2.demand_misses::.cpu.data                 97                       # number of demand (read+write) misses
system.l2.demand_misses::total                    352                       # number of demand (read+write) misses
system.l2.overall_misses::.cpu.inst               255                       # number of overall misses
system.l2.overall_misses::.cpu.data                97                       # number of overall misses
system.l2.overall_misses::total                   352                       # number of overall misses
system.l2.demand_miss_latency::.cpu.inst     26514584                       # number of demand (read+write) miss cycles
system.l2.demand_miss_latency::.cpu.data     11117556                       # number of demand (read+write) miss cycles
system.l2.demand_miss_latency::total         37632140                       # number of demand (read+write) miss cycles
system.l2.overall_miss_latency::.cpu.inst     26514584                       # number of overall miss cycles
system.l2.overall_miss_latency::.cpu.data     11117556                       # number of overall miss cycles
system.l2.overall_miss_latency::total        37632140                       # number of overall miss cycles
system.l2.demand_accesses::.cpu.inst              262                       # number of demand (read+write) accesses
system.l2.demand_accesses::.cpu.data              114                       # number of demand (read+write) accesses
system.l2.demand_accesses::total                  376                       # number of demand (read+write) accesses
system.l2.overall_accesses::.cpu.inst             262                       # number of overall (read+write) accesses
system.l2.overall_accesses::.cpu.data             114                       # number of overall (read+write) accesses
system.l2.overall_accesses::total                 376                       # number of overall (read+write) accesses
system.l2.demand_miss_rate::.cpu.inst        0.973282                       # miss rate for demand accesses
system.l2.demand_miss_rate::.cpu.data        0.850877                       # miss rate for demand accesses
system.l2.demand_miss_rate::total            0.936170                       # miss rate for demand accesses
system.l2.overall_miss_rate::.cpu.inst       0.973282                       # miss rate for overall accesses
system.l2.overall_miss_rate::.cpu.data       0.850877                       # miss rate for overall accesses
system.l2.overall_miss_rate::total           0.936170                       # miss rate for overall accesses
system.l2.demand_avg_miss_latency::.cpu.inst 103978.760784                       # average overall miss latency
system.l2.demand_avg_miss_latency::.cpu.data 114613.979381                       # average overall miss latency
system.l2.demand_avg_miss_latency::total 106909.488636                       # average overall miss latency
system.l2.overall_avg_miss_latency::.cpu.inst 103978.760784                       # average overall miss latency
system.l2.overall_avg_miss_latency::.cpu.data 114613.979381                       # average overall miss latency
system.l2.overall_avg_miss_latency::total 106909.488636                       # average overall miss latency
system.l2.blocked_cycles::no_mshrs                  0                       # number of cycles access was blocked
system.l2.blocked_cycles::no_targets                0                       # number of cycles access was blocked
system.l2.blocked::no_mshrs                         0                       # number of cycles access was blocked
system.l2.blocked::no_targets                       0                       # number of cycles access was blocked
system.l2.avg_blocked_cycles::no_mshrs            nan                       # average number of cycles each access was blocked
system.l2.avg_blocked_cycles::no_targets          nan                       # average number of cycles each access was blocked
system.l2.demand_mshr_hits::.cpu.inst               1                       # number of demand (read+write) MSHR hits
system.l2.demand_mshr_hits::.cpu.data               2                       # number of demand (read+write) MSHR hits
system.l2.demand_mshr_hits::total                   3                       # number of demand (read+write) MSHR hits
system.l2.overall_mshr_hits::.cpu.inst              1                       # number of overall MSHR hits
system.l2.overall_mshr_hits::.cpu.data              2                       # number of overall MSHR hits
system.l2.overall_mshr_hits::total                  3                       # number of overall MSHR hits
system.l2.demand_mshr_misses::.cpu.inst           254                       # number of demand (read+write) MSHR misses
system.l2.demand_mshr_misses::.cpu.data            95                       # number of demand (read+write) MSHR misses
system.l2.demand_mshr_misses::total               349                       # number of demand (read+write) MSHR misses
system.l2.overall_mshr_misses::.cpu.inst          254                       # number of overall MSHR misses
system.l2.overall_mshr_misses::.cpu.data           95                       # number of overall MSHR misses
system.l2.overall_mshr_misses::total              349                       # number of overall MSHR misses
system.l2.demand_mshr_miss_latency::.cpu.inst     22928613                       # number of demand (read+write) MSHR miss cycles
system.l2.demand_mshr_miss_latency::.cpu.data      9639329                       # number of demand (read+write) MSHR miss cycles
system.l2.demand_mshr_miss_latency::total     32567942                       # number of demand (read+write) MSHR miss cycles
system.l2.overall_mshr_miss_latency::.cpu.inst     22928613                       # number of overall MSHR miss cycles
system.l2.overall_mshr_miss_latency::.cpu.data      9639329                       # number of overall MSHR miss cycles
system.l2.overall_mshr_miss_latency::total     32567942                       # number of overall MSHR miss cycles
system.l2.demand_mshr_miss_rate::.cpu.inst     0.969466                       # mshr miss rate for demand accesses
system.l2.demand_mshr_miss_rate::.cpu.data     0.833333                       # mshr miss rate for demand accesses
system.l2.demand_mshr_miss_rate::total       0.928191                       # mshr miss rate for demand accesses
system.l2.overall_mshr_miss_rate::.cpu.inst     0.969466                       # mshr miss rate for overall accesses
system.l2.overall_mshr_miss_rate::.cpu.data     0.833333                       # mshr miss rate for overall accesses
system.l2.overall_mshr_miss_rate::total      0.928191                       # mshr miss rate for overall accesses
system.l2.demand_avg_mshr_miss_latency::.cpu.inst 90270.129921                       # average overall mshr miss latency
system.l2.demand_avg_mshr_miss_latency::.cpu.data 101466.621053                       # average overall mshr miss latency
system.l2.demand_avg_mshr_miss_latency::total 93317.885387                       # average overall mshr miss latency
system.l2.overall_avg_mshr_miss_latency::.cpu.inst 90270.129921                       # average overall mshr miss latency
system.l2.overall_avg_mshr_miss_latency::.cpu.data 101466.621053                       # average overall mshr miss latency
system.l2.overall_avg_mshr_miss_latency::total 93317.885387                       # average overall mshr miss latency
system.l2.replacements                              0                       # number of replacements
system.l2.ReadExReq_misses::.cpu.data              30                       # number of ReadExReq misses
system.l2.ReadExReq_misses::total                  30                       # number of ReadExReq misses
system.l2.ReadExReq_miss_latency::.cpu.data      3401700                       # number of ReadExReq miss cycles
system.l2.ReadExReq_miss_latency::total       3401700                       # number of ReadExReq miss cycles
system.l2.ReadExReq_accesses::.cpu.data            30                       # number of ReadExReq accesses(hits+misses)
system.l2.ReadExReq_accesses::total                30                       # number of ReadExReq accesses(hits+misses)
system.l2.ReadExReq_miss_rate::.cpu.data            1                       # miss rate for ReadExReq accesses
system.l2.ReadExReq_miss_rate::total                1                       # miss rate for ReadExReq accesses
system.l2.ReadExReq_avg_miss_latency::.cpu.data       113390                       # average ReadExReq miss latency
system.l2.ReadExReq_avg_miss_latency::total       113390                       # average ReadExReq miss latency
system.l2.ReadExReq_mshr_misses::.cpu.data           30                       # number of ReadExReq MSHR misses
system.l2.ReadExReq_mshr_misses::total             30                       # number of ReadExReq MSHR misses
system.l2.ReadExReq_mshr_miss_latency::.cpu.data      2990643                       # number of ReadExReq MSHR miss cycles
system.l2.ReadExReq_mshr_miss_latency::total      2990643                       # number of ReadExReq MSHR miss cycles
system.l2.ReadExReq_mshr_miss_rate::.cpu.data            1                       # mshr miss rate for ReadExReq accesses
system.l2.ReadExReq_mshr_miss_rate::total            1                       # mshr miss rate for ReadExReq accesses
system.l2.ReadExReq_avg_mshr_miss_latency::.cpu.data 99688.100000                       # average ReadExReq mshr miss latency
system.l2.ReadExReq_avg_mshr_miss_latency::total 99688.100000                       # average ReadExReq mshr miss latency
system.l2.ReadCleanReq_hits::.cpu.inst              7                       # number of ReadCleanReq hits
system.l2.ReadCleanReq_hits::total                  7                       # number of ReadCleanReq hits
system.l2.ReadCleanReq_misses::.cpu.inst          255                       # number of ReadCleanReq misses
system.l2.ReadCleanReq_misses::total              255                       # number of ReadCleanReq misses
system.l2.ReadCleanReq_miss_latency::.cpu.inst     26514584                       # number of ReadCleanReq miss cycles
system.l2.ReadCleanReq_miss_latency::total     26514584                       # number of ReadCleanReq miss cycles
system.l2.ReadCleanReq_accesses::.cpu.inst          262                       # number of ReadCleanReq accesses(hits+misses)
system.l2.ReadCleanReq_accesses::total            262                       # number of ReadCleanReq accesses(hits+misses)
system.l2.ReadCleanReq_miss_rate::.cpu.inst     0.973282                       # miss rate for ReadCleanReq accesses
system.l2.ReadCleanReq_miss_rate::total      0.973282                       # miss rate for ReadCleanReq accesses
system.l2.ReadCleanReq_avg_miss_latency::.cpu.inst 103978.760784                       # average ReadCleanReq miss latency
system.l2.ReadCleanReq_avg_miss_latency::total 103978.760784                       # average ReadCleanReq miss latency
system.l2.ReadCleanReq_mshr_hits::.cpu.inst            1                       # number of ReadCleanReq MSHR hits
system.l2.ReadCleanReq_mshr_hits::total             1                       # number of ReadCleanReq MSHR hits
system.l2.ReadCleanReq_mshr_misses::.cpu.inst          254                       # number of ReadCleanReq MSHR misses
system.l2.ReadCleanReq_mshr_misses::total          254                       # number of ReadCleanReq MSHR misses
system.l2.ReadCleanReq_mshr_miss_latency::.cpu.inst     22928613                       # number of ReadCleanReq MSHR miss cycles
system.l2.ReadCleanReq_mshr_miss_latency::total     22928613                       # number of ReadCleanReq MSHR miss cycles
system.l2.ReadCleanReq_mshr_miss_rate::.cpu.inst     0.969466                       # mshr miss rate for ReadCleanReq accesses
system.l2.ReadCleanReq_mshr_miss_rate::total     0.969466                       # mshr miss rate for ReadCleanReq accesses
system.l2.ReadCleanReq_avg_mshr_miss_latency::.cpu.inst 90270.129921                       # average ReadCleanReq mshr miss latency
system.l2.ReadCleanReq_avg_mshr_miss_latency::total 90270.129921                       # average ReadCleanReq mshr miss latency
system.l2.ReadSharedReq_hits::.cpu.data            17                       # number of ReadSharedReq hits
system.l2.ReadSharedReq_hits::total                17                       # number of ReadSharedReq hits
system.l2.ReadSharedReq_misses::.cpu.data           67                       # number of ReadSharedReq misses
system.l2.ReadSharedReq_misses::total              67                       # number of ReadSharedReq misses
system.l2.ReadSharedReq_miss_latency::.cpu.data      7715856                       # number of ReadSharedReq miss cycles
system.l2.ReadSharedReq_miss_latency::total      7715856                       # number of ReadSharedReq miss cycles
system.l2.ReadSharedReq_accesses::.cpu.data           84                       # number of ReadSharedReq accesses(hits+misses)
system.l2.ReadSharedReq_accesses::total            84                       # number of ReadSharedReq accesses(hits+misses)
system.l2.ReadSharedReq_miss_rate::.cpu.data     0.797619                       # miss rate for ReadSharedReq accesses
system.l2.ReadSharedReq_miss_rate::total     0.797619                       # miss rate for ReadSharedReq accesses
system.l2.ReadSharedReq_avg_miss_latency::.cpu.data 115162.029851                       # average ReadSharedReq miss latency
system.l2.ReadSharedReq_avg_miss_latency::total 115162.029851                       # average ReadSharedReq miss latency
system.l2.ReadSharedReq_mshr_hits::.cpu.data            2                       # number of ReadSharedReq MSHR hits
system.l2.ReadSharedReq_mshr_hits::total            2                       # number of ReadSharedReq MSHR hits
system.l2.ReadSharedReq_mshr_misses::.cpu.data           65                       # number of ReadSharedReq MSHR misses
system.l2.ReadSharedReq_mshr_misses::total           65                       # number of ReadSharedReq MSHR misses
system.l2.ReadSharedReq_mshr_miss_latency::.cpu.data      6648686                       # number of ReadSharedReq MSHR miss cycles
system.l2.ReadSharedReq_mshr_miss_latency::total      6648686                       # number of ReadSharedReq MSHR miss cycles
system.l2.ReadSharedReq_mshr_miss_rate::.cpu.data     0.773810                       # mshr miss rate for ReadSharedReq accesses
system.l2.ReadSharedReq_mshr_miss_rate::total     0.773810                       # mshr miss rate for ReadSharedReq accesses
system.l2.ReadSharedReq_avg_mshr_miss_latency::.cpu.data 102287.476923                       # average ReadSharedReq mshr miss latency
system.l2.ReadSharedReq_avg_mshr_miss_latency::total 102287.476923                       # average ReadSharedReq mshr miss latency
system.l2.power_state.pwrStateResidencyTicks::UNDEFINED     49087198                       # Cumulative time (in ticks) in various power states
system.l2.tags.tagsinuse                   184.203940                       # Cycle average of tags in use
system.l2.tags.total_refs                         373                       # Total number of references to valid blocks.
system.l2.tags.sampled_refs                       349                       # Sample count of references to valid blocks.
system.l2.tags.avg_refs                      1.068768                       # Average number of references to valid blocks.
system.l2.tags.warmup_cycle                     95000                       # Cycle when the warmup percentage was hit.
system.l2.tags.occ_blocks::.cpu.inst       130.450029                       # Average occupied blocks per requestor
system.l2.tags.occ_blocks::.cpu.data        53.753911                       # Average occupied blocks per requestor
system.l2.tags.occ_percent::.cpu.inst        0.063696                       # Average percentage of cache occupancy
system.l2.tags.occ_percent::.cpu.data        0.026247                       # Average percentage of cache occupancy
system.l2.tags.occ_percent::total            0.089943                       # Average percentage of cache occupancy
system.l2.tags.occ_task_id_blocks::1024           349                       # Occupied blocks per task id
system.l2.tags.age_task_id_blocks_1024::0           76                       # Occupied blocks per task id
system.l2.tags.age_task_id_blocks_1024::1          273                       # Occupied blocks per task id
system.l2.tags.occ_task_id_percent::1024     0.170410                       # Percentage of cache occupancy per task id
system.l2.tags.tag_accesses                      3357                       # Number of tag accesses
system.l2.tags.data_accesses                     3357                       # Number of data accesses
system.l2.tags.power_state.pwrStateResidencyTicks::UNDEFINED     49087198                       # Cumulative time (in ticks) in various power states
system.mem_ctrls.avgPriority_.cpu.inst::samples      1016.00                       # Average QoS priority value for accepted requests
system.mem_ctrls.avgPriority_.cpu.data::samples       380.00                       # Average QoS priority value for accepted requests
system.mem_ctrls.priorityMinLatency      0.000000018750                       # per QoS priority minimum request to response latency (s)
system.mem_ctrls.priorityMaxLatency      0.000000563002                       # per QoS priority maximum request to response latency (s)
system.mem_ctrls.numReadWriteTurnArounds            0                       # Number of turnarounds from READ to WRITE
system.mem_ctrls.numWriteReadTurnArounds            0                       # Number of turnarounds from WRITE to READ
system.mem_ctrls.numStayReadState                1748                       # Number of times bus staying in READ state
system.mem_ctrls.numStayWriteState                  0                       # Number of times bus staying in WRITE state
system.mem_ctrls.readReqs                         349                       # Number of read requests accepted
system.mem_ctrls.writeReqs                          0                       # Number of write requests accepted
system.mem_ctrls.readBursts                      1396                       # Number of controller read bursts, including those serviced by the write queue
system.mem_ctrls.writeBursts                        0                       # Number of controller write bursts, including those merged in the write queue
system.mem_ctrls.servicedByWrQ                      0                       # Number of controller read bursts serviced by the write queue
system.mem_ctrls.mergedWrBursts                     0                       # Number of controller write bursts merged with an existing one
system.mem_ctrls.neitherReadNorWriteReqs            0                       # Number of requests that are neither read nor write
system.mem_ctrls.avgRdQLen                       4.38                       # Average read queue length when enqueuing
system.mem_ctrls.avgWrQLen                       0.00                       # Average write queue length when enqueuing
system.mem_ctrls.numRdRetry                         0                       # Number of times read queue was full causing retry
system.mem_ctrls.numWrRetry                         0                       # Number of times write queue was full causing retry
system.mem_ctrls.readPktSize::0                     0                       # Read request sizes (log2)
system.mem_ctrls.readPktSize::1                     0                       # Read request sizes (log2)
system.mem_ctrls.readPktSize::2                     0                       # Read request sizes (log2)
system.mem_ctrls.readPktSize::3                     0                       # Read request sizes (log2)
system.mem_ctrls.readPktSize::4                     0                       # Read request sizes (log2)
system.mem_ctrls.readPktSize::5                     0                       # Read request sizes (log2)
system.mem_ctrls.readPktSize::6                  1396                       # Read request sizes (log2)
system.mem_ctrls.readPktSize::7                     0                       # Read request sizes (log2)
system.mem_ctrls.readPktSize::8                     0                       # Read request sizes (log2)
system.mem_ctrls.writePktSize::0                    0                       # Write request sizes (log2)
system.mem_ctrls.writePktSize::1                    0                       # Write request sizes (log2)
system.mem_ctrls.writePktSize::2                    0                       # Write request sizes (log2)
system.mem_ctrls.writePktSize::3                    0                       # Write request sizes (log2)
system.mem_ctrls.writePktSize::4                    0                       # Write request sizes (log2)
system.mem_ctrls.writePktSize::5                    0                       # Write request sizes (log2)
system.mem_ctrls.writePktSize::6                    0                       # Write request sizes (log2)
system.mem_ctrls.writePktSize::7                    0                       # Write request sizes (log2)
system.mem_ctrls.writePktSize::8                    0                       # Write request sizes (log2)
system.mem_ctrls.rdQLenPdf::0                     312                       # What read queue length does an incoming req see
system.mem_ctrls.rdQLenPdf::1                     314                       # What read queue length does an incoming req see
system.mem_ctrls.rdQLenPdf::2                     315                       # What read queue length does an incoming req see
system.mem_ctrls.rdQLenPdf::3                     317                       # What read queue length does an incoming req see
system.mem_ctrls.rdQLenPdf::4                      35                       # What read queue length does an incoming req see
system.mem_ctrls.rdQLenPdf::5                      34                       # What read queue length does an incoming req see
system.mem_ctrls.rdQLenPdf::6                      33                       # What read queue length does an incoming req see
system.mem_ctrls.rdQLenPdf::7                      31                       # What read queue length does an incoming req see
system.mem_ctrls.rdQLenPdf::8                       2                       # What read queue length does an incoming req see
system.mem_ctrls.rdQLenPdf::9                       1                       # What read queue length does an incoming req see
system.mem_ctrls.rdQLenPdf::10                      1                       # What read queue length does an incoming req see
system.mem_ctrls.rdQLenPdf::11                      1                       # What read queue length does an incoming req see
system.mem_ctrls.rdQLenPdf::12                      0                       # What read queue length does an incoming req see
system.mem_ctrls.rdQLenPdf::13                      0                       # What read queue length does an incoming req see
system.mem_ctrls.rdQLenPdf::14                      0                       # What read queue length does an incoming req see
system.mem_ctrls.rdQLenPdf::15                      0                       # What read queue length does an incoming req see
system.mem_ctrls.rdQLenPdf::16                      0                       # What read queue length does an incoming req see
system.mem_ctrls.rdQLenPdf::17                      0                       # What read queue length does an incoming req see
system.mem_ctrls.rdQLenPdf::18                      0                       # What read queue length does an incoming req see
system.mem_ctrls.rdQLenPdf::19                      0                       # What read queue length does an incoming req see
system.mem_ctrls.rdQLenPdf::20                      0                       # What read queue length does an incoming req see
system.mem_ctrls.rdQLenPdf::21                      0                       # What read queue length does an incoming req see
system.mem_ctrls.rdQLenPdf::22                      0                       # What read queue length does an incoming req see
system.mem_ctrls.rdQLenPdf::23                      0                       # What read queue length does an incoming req see
system.mem_ctrls.rdQLenPdf::24                      0                       # What read queue length does an incoming req see
[...]
system.mem_ctrls.dram.bytes_read::total         89344                       # Number of bytes read from this memory
system.mem_ctrls.dram.bytes_inst_read::.cpu.inst        65024                       # Number of instructions bytes read from this memory
system.mem_ctrls.dram.bytes_inst_read::total        65024                       # Number of instructions bytes read from this memory
system.mem_ctrls.dram.num_reads::.cpu.inst          254                       # Number of read requests responded to by this memory
system.mem_ctrls.dram.num_reads::.cpu.data           95                       # Number of read requests responded to by this memory
system.mem_ctrls.dram.num_reads::total            349                       # Number of read requests responded to by this memory
system.mem_ctrls.dram.bw_read::.cpu.inst   1324663103                       # Total read bandwidth from this memory (bytes/s)
system.mem_ctrls.dram.bw_read::.cpu.data    495444861                       # Total read bandwidth from this memory (bytes/s)
system.mem_ctrls.dram.bw_read::total       1820107964                       # Total read bandwidth from this memory (bytes/s)
system.mem_ctrls.dram.bw_inst_read::.cpu.inst   1324663103                       # Instruction read bandwidth from this memory (bytes/s)
system.mem_ctrls.dram.bw_inst_read::total   1324663103                       # Instruction read bandwidth from this memory (bytes/s)
system.mem_ctrls.dram.bw_total::.cpu.inst   1324663103                       # Total bandwidth to/from this memory (bytes/s)
system.mem_ctrls.dram.bw_total::.cpu.data    495444861                       # Total bandwidth to/from this memory (bytes/s)
system.mem_ctrls.dram.bw_total::total      1820107964                       # Total bandwidth to/from this memory (bytes/s)
system.mem_ctrls.dram.readBursts                 1396                       # Number of DRAM read bursts
system.mem_ctrls.dram.writeBursts                   0                       # Number of DRAM write bursts
system.mem_ctrls.dram.perBankRdBursts::0          128                       # Per bank write bursts
system.mem_ctrls.dram.perBankRdBursts::1          132                       # Per bank write bursts
system.mem_ctrls.dram.perBankRdBursts::2           88                       # Per bank write bursts
system.mem_ctrls.dram.perBankRdBursts::3          124                       # Per bank write bursts
system.mem_ctrls.dram.perBankRdBursts::4           88                       # Per bank write bursts
system.mem_ctrls.dram.perBankRdBursts::5            4                       # Per bank write bursts
system.mem_ctrls.dram.perBankRdBursts::6           72                       # Per bank write bursts
system.mem_ctrls.dram.perBankRdBursts::7           80                       # Per bank write bursts
system.mem_ctrls.dram.perBankRdBursts::8           96                       # Per bank write bursts
system.mem_ctrls.dram.perBankRdBursts::9          104                       # Per bank write bursts
system.mem_ctrls.dram.perBankRdBursts::10          116                       # Per bank write bursts
system.mem_ctrls.dram.perBankRdBursts::11           40                       # Per bank write bursts
system.mem_ctrls.dram.perBankRdBursts::12            0                       # Per bank write bursts
system.mem_ctrls.dram.perBankRdBursts::13           72                       # Per bank write bursts
system.mem_ctrls.dram.perBankRdBursts::14          180                       # Per bank write bursts
system.mem_ctrls.dram.perBankRdBursts::15           72                       # Per bank write bursts
system.mem_ctrls.dram.perBankWrBursts::0            0                       # Per bank write bursts
system.mem_ctrls.dram.perBankWrBursts::1            0                       # Per bank write bursts
system.mem_ctrls.dram.perBankWrBursts::2            0                       # Per bank write bursts
system.mem_ctrls.dram.perBankWrBursts::3            0                       # Per bank write bursts
system.mem_ctrls.dram.perBankWrBursts::4            0                       # Per bank write bursts
system.mem_ctrls.dram.perBankWrBursts::5            0                       # Per bank write bursts
system.mem_ctrls.dram.perBankWrBursts::6            0                       # Per bank write bursts
system.mem_ctrls.dram.perBankWrBursts::7            0                       # Per bank write bursts
system.mem_ctrls.dram.perBankWrBursts::8            0                       # Per bank write bursts
system.mem_ctrls.dram.perBankWrBursts::9            0                       # Per bank write bursts
system.mem_ctrls.dram.perBankWrBursts::10            0                       # Per bank write bursts
system.mem_ctrls.dram.perBankWrBursts::11            0                       # Per bank write bursts
system.mem_ctrls.dram.perBankWrBursts::12            0                       # Per bank write bursts
system.mem_ctrls.dram.perBankWrBursts::13            0                       # Per bank write bursts
system.mem_ctrls.dram.perBankWrBursts::14            0                       # Per bank write bursts
system.mem_ctrls.dram.perBankWrBursts::15            0                       # Per bank write bursts
system.mem_ctrls.dram.totQLat                30872600                       # Total ticks spent queuing
system.mem_ctrls.dram.totBusLat               6980000                       # Total ticks spent in databus transfers
system.mem_ctrls.dram.totMemAccLat           57047600                       # Total ticks spent from burst creation until serviced by the DRAM
system.mem_ctrls.dram.avgQLat                22115.04                       # Average queueing delay per DRAM burst
system.mem_ctrls.dram.avgBusLat               5000.00                       # Average bus latency per DRAM burst
system.mem_ctrls.dram.avgMemAccLat           40865.04                       # Average memory access latency per DRAM burst
system.mem_ctrls.dram.readRowHits                1237                       # Number of row buffer hits during reads
system.mem_ctrls.dram.writeRowHits                  0                       # Number of row buffer hits during writes
system.mem_ctrls.dram.readRowHitRate            88.61                       # Row buffer hit rate for reads
system.mem_ctrls.dram.writeRowHitRate             nan                       # Row buffer hit rate for writes
system.mem_ctrls.dram.bytesPerActivate::samples          154                       # Bytes accessed per row activation
system.mem_ctrls.dram.bytesPerActivate::mean   566.857143                       # Bytes accessed per row activation
system.mem_ctrls.dram.bytesPerActivate::gmean   485.536259                       # Bytes accessed per row activation
system.mem_ctrls.dram.bytesPerActivate::stdev   304.123028                       # Bytes accessed per row activation
system.mem_ctrls.dram.bytesPerActivate::256-383           61     39.61%     39.61% # Bytes accessed per row activation
system.mem_ctrls.dram.bytesPerActivate::512-639           33     21.43%     61.04% # Bytes accessed per row activation
system.mem_ctrls.dram.bytesPerActivate::768-895           26     16.88%     77.92% # Bytes accessed per row activation
system.mem_ctrls.dram.bytesPerActivate::1024-1151           34     22.08%    100.00% # Bytes accessed per row activation
system.mem_ctrls.dram.bytesPerActivate::total          154                       # Bytes accessed per row activation
system.mem_ctrls.dram.bytesRead                 89344                       # Total number of bytes read from DRAM
system.mem_ctrls.dram.bytesWritten                  0                       # Total number of bytes written to DRAM
system.mem_ctrls.dram.avgRdBW             1820.107964                       # Average DRAM read bandwidth in MiBytes/s
system.mem_ctrls.dram.avgWrBW                       0                       # Average DRAM write bandwidth in MiBytes/s
system.mem_ctrls.dram.peakBW                 12800.00                       # Theoretical peak bandwidth in MiByte/s
system.mem_ctrls.dram.busUtil                   14.22                       # Data bus utilization in percentage
system.mem_ctrls.dram.busUtilRead               14.22                       # Data bus utilization in percentage for reads
system.mem_ctrls.dram.busUtilWrite               0.00                       # Data bus utilization in percentage for writes
system.mem_ctrls.dram.pageHitRate               88.61                       # Row buffer hit rate, read and write combined
system.mem_ctrls.dram.power_state.pwrStateResidencyTicks::UNDEFINED     49087198                       # Cumulative time (in ticks) in various power states
system.mem_ctrls.dram.rank0.actEnergy          585480                       # Energy for activate commands per rank (pJ)
system.mem_ctrls.dram.rank0.preEnergy          296010                       # Energy for precharge commands per rank (pJ)
system.mem_ctrls.dram.rank0.readEnergy        5112240                       # Energy for read commands per rank (pJ)
system.mem_ctrls.dram.rank0.writeEnergy             0                       # Energy for write commands per rank (pJ)
system.mem_ctrls.dram.rank0.refreshEnergy 3687840.000000                       # Energy for refresh commands per rank (pJ)
system.mem_ctrls.dram.rank0.actBackEnergy     21186900                       # Energy for active background per rank (pJ)
system.mem_ctrls.dram.rank0.preBackEnergy      1008000                       # Energy for precharge background per rank (pJ)
system.mem_ctrls.dram.rank0.actPowerDownEnergy            0                       # Energy for active power-down per rank (pJ)
system.mem_ctrls.dram.rank0.prePowerDownEnergy            0                       # Energy for precharge power-down per rank (pJ)
system.mem_ctrls.dram.rank0.selfRefreshEnergy            0                       # Energy for self refresh per rank (pJ)
system.mem_ctrls.dram.rank0.totalEnergy      31876470                       # Total energy per rank (pJ)
system.mem_ctrls.dram.rank0.averagePower   649.384591                       # Core power per rank (mW)
system.mem_ctrls.dram.rank0.totalIdleTime            0                       # Total Idle time Per DRAM Rank
system.mem_ctrls.dram.rank0.pwrStateTime::IDLE      2374511                       # Time in different power states
system.mem_ctrls.dram.rank0.pwrStateTime::REF      1560000                       # Time in different power states
system.mem_ctrls.dram.rank0.pwrStateTime::SREF            0                       # Time in different power states
system.mem_ctrls.dram.rank0.pwrStateTime::PRE_PDN            0                       # Time in different power states
system.mem_ctrls.dram.rank0.pwrStateTime::ACT     45152687                       # Time in different power states
system.mem_ctrls.dram.rank0.pwrStateTime::ACT_PDN            0                       # Time in different power states
system.mem_ctrls.dram.rank1.actEnergy          549780                       # Energy for activate commands per rank (pJ)
system.mem_ctrls.dram.rank1.preEnergy          288420                       # Energy for precharge commands per rank (pJ)
system.mem_ctrls.dram.rank1.readEnergy        4855200                       # Energy for read commands per rank (pJ)
system.mem_ctrls.dram.rank1.writeEnergy             0                       # Energy for write commands per rank (pJ)
system.mem_ctrls.dram.rank1.refreshEnergy 3687840.000000                       # Energy for refresh commands per rank (pJ)
system.mem_ctrls.dram.rank1.actBackEnergy     20669340                       # Energy for active background per rank (pJ)
system.mem_ctrls.dram.rank1.preBackEnergy      1443840                       # Energy for precharge background per rank (pJ)
system.mem_ctrls.dram.rank1.actPowerDownEnergy            0                       # Energy for active power-down per rank (pJ)
system.mem_ctrls.dram.rank1.prePowerDownEnergy            0                       # Energy for precharge power-down per rank (pJ)
system.mem_ctrls.dram.rank1.selfRefreshEnergy            0                       # Energy for self refresh per rank (pJ)
system.mem_ctrls.dram.rank1.totalEnergy      31494420                       # Total energy per rank (pJ)
system.mem_ctrls.dram.rank1.averagePower   641.601503                       # Core power per rank (mW)
system.mem_ctrls.dram.rank1.totalIdleTime            0                       # Total Idle time Per DRAM Rank
system.mem_ctrls.dram.rank1.pwrStateTime::IDLE      3590957                       # Time in different power states
system.mem_ctrls.dram.rank1.pwrStateTime::REF      1560000                       # Time in different power states
system.mem_ctrls.dram.rank1.pwrStateTime::SREF            0                       # Time in different power states
system.mem_ctrls.dram.rank1.pwrStateTime::PRE_PDN            0                       # Time in different power states
system.mem_ctrls.dram.rank1.pwrStateTime::ACT     43936241                       # Time in different power states
system.mem_ctrls.dram.rank1.pwrStateTime::ACT_PDN            0                       # Time in different power states
system.mem_ctrls.power_state.pwrStateResidencyTicks::UNDEFINED     49087198                       # Cumulative time (in ticks) in various power states
system.membus.trans_dist::ReadResp                319                       # Transaction distribution
system.membus.trans_dist::ReadExReq                30                       # Transaction distribution
system.membus.trans_dist::ReadExResp               30                       # Transaction distribution
system.membus.trans_dist::ReadSharedReq           319                       # Transaction distribution
system.membus.pkt_count_system.l2.mem_side_port::system.mem_ctrls.port          698                       # Packet count per connected requestor and responder (bytes)
system.membus.pkt_count::total                    698                       # Packet count per connected requestor and responder (bytes)
system.membus.pkt_size_system.l2.mem_side_port::system.mem_ctrls.port        89344                       # Cumulative packet size per connected requestor and responder (bytes)
system.membus.pkt_size::total                   89344                       # Cumulative packet size per connected requestor and responder (bytes)
system.membus.snoops                                0                       # Total snoops (count)
system.membus.snoopTraffic                          0                       # Total snoop traffic (bytes)
system.membus.snoop_fanout::samples               349                       # Request fanout histogram
system.membus.snoop_fanout::mean                    0                       # Request fanout histogram
system.membus.snoop_fanout::stdev                   0                       # Request fanout histogram
system.membus.snoop_fanout::underflows              0      0.00%      0.00% # Request fanout histogram
system.membus.snoop_fanout::0                     349    100.00%    100.00% # Request fanout histogram
system.membus.snoop_fanout::1                       0      0.00%    100.00% # Request fanout histogram
system.membus.snoop_fanout::overflows               0      0.00%    100.00% # Request fanout histogram
system.membus.snoop_fanout::min_value               0                       # Request fanout histogram
system.membus.snoop_fanout::max_value               0                       # Request fanout histogram
system.membus.snoop_fanout::total                 349                       # Request fanout histogram
system.membus.power_state.pwrStateResidencyTicks::UNDEFINED     49087198                       # Cumulative time (in ticks) in various power states
system.membus.reqLayer0.occupancy              534031                       # Layer occupancy (ticks)
system.membus.reqLayer0.utilization               1.1                       # Layer utilization (%)
system.membus.respLayer1.occupancy            6076600                       # Layer occupancy (ticks)
system.membus.respLayer1.utilization             12.4                       # Layer utilization (%)
system.tol2bus.trans_dist::ReadResp               346                       # Transaction distribution
system.tol2bus.trans_dist::ReadExReq               30                       # Transaction distribution
system.tol2bus.trans_dist::ReadExResp              30                       # Transaction distribution
system.tol2bus.trans_dist::ReadCleanReq           262                       # Transaction distribution
system.tol2bus.trans_dist::ReadSharedReq           84                       # Transaction distribution
system.tol2bus.pkt_count_system.cpu.icache.mem_side_port::system.l2.cpu_side_port          524                       # Packet count per connected requestor and responder (bytes)
system.tol2bus.pkt_count_system.cpu.dcache.mem_side_port::system.l2.cpu_side_port          228                       # Packet count per connected requestor and responder (bytes)
system.tol2bus.pkt_count::total                   752                       # Packet count per connected requestor and responder (bytes)
system.tol2bus.pkt_size_system.cpu.icache.mem_side_port::system.l2.cpu_side_port        67072                       # Cumulative packet size per connected requestor and responder (bytes)
system.tol2bus.pkt_size_system.cpu.dcache.mem_side_port::system.l2.cpu_side_port        29184                       # Cumulative packet size per connected requestor and responder (bytes)
system.tol2bus.pkt_size::total                  96256                       # Cumulative packet size per connected requestor and responder (bytes)
system.tol2bus.snoops                               0                       # Total snoops (count)
system.tol2bus.snoopTraffic                         0                       # Total snoop traffic (bytes)
system.tol2bus.snoop_fanout::samples              376                       # Request fanout histogram
system.tol2bus.snoop_fanout::mean            0.071809                       # Request fanout histogram
system.tol2bus.snoop_fanout::stdev           0.258515                       # Request fanout histogram
system.tol2bus.snoop_fanout::underflows             0      0.00%      0.00% # Request fanout histogram
system.tol2bus.snoop_fanout::0                    349     92.82%     92.82% # Request fanout histogram
system.tol2bus.snoop_fanout::1                     27      7.18%    100.00% # Request fanout histogram
system.tol2bus.snoop_fanout::2                      0      0.00%    100.00% # Request fanout histogram
system.tol2bus.snoop_fanout::overflows              0      0.00%    100.00% # Request fanout histogram
system.tol2bus.snoop_fanout::min_value              0                       # Request fanout histogram
system.tol2bus.snoop_fanout::max_value              1                       # Request fanout histogram
system.tol2bus.snoop_fanout::total                376                       # Request fanout histogram
system.tol2bus.power_state.pwrStateResidencyTicks::UNDEFINED     49087198                       # Cumulative time (in ticks) in various power states
system.tol2bus.reqLayer0.occupancy             250792                       # Layer occupancy (ticks)
system.tol2bus.reqLayer0.utilization              0.5                       # Layer utilization (%)
system.tol2bus.respLayer0.occupancy           1573452                       # Layer occupancy (ticks)
system.tol2bus.respLayer0.utilization             3.2                       # Layer utilization (%)
system.tol2bus.respLayer1.occupancy            685674                       # Layer occupancy (ticks)
system.tol2bus.respLayer1.utilization             1.4                       # Layer utilization (%)
system.voltage_domain.voltage                       1                       # Voltage in Volts

---------- End Simulation Statistics   ----------
