
---------- Begin Simulation Statistics ----------
final_tick                               201503300633                       # Number of ticks from beginning of simulation (restored from checkpoints and never reset)
host_inst_rate                                 148908                       # Simulator instruction rate (inst/s)
host_mem_usage                                 672468                       # Number of bytes of host memory used
host_op_rate                                   274316                       # Simulator op (including micro ops) rate (op/s)
host_seconds                                   671.56                       # Real time elapsed on the host
host_tick_rate                              300054067                       # Simulator tick rate (ticks/s)
sim_freq                                 1000000000000                       # Frequency of simulated ticks
sim_insts                                   100000000                       # Number of instructions simulated
sim_ops                                     184218801                       # Number of ops (including micro ops) simulated
sim_seconds                                  0.201503                       # Number of seconds simulated
sim_ticks                                201503300633                       # Number of ticks simulated
system.cpu.committedInsts                   100000000                       # Number of instructions committed
system.cpu.committedOps                     184218801                       # Number of ops (including micro ops) committed
system.cpu.cpi                               3.021039                       # CPI: cycles per instruction
system.cpu.discardedOps                          4478                       # Number of ops (including micro ops) which were discarded before commit
system.cpu.idleCycles                        85282183                       # Total number of cycles that the object has spent stopped
system.cpu.ipc                               0.331012                       # IPC: instructions per cycle
system.cpu.numCycles                        302103899                       # number of cpu cycles simulated
system.cpu.numFetchSuspends                         0                       # Number of times Execute suspended instruction fetching
system.cpu.numWorkItemsCompleted                    0                       # number of work items this cpu completed
system.cpu.numWorkItemsStarted                      0                       # number of work items this cpu started
system.cpu.op_class_0::No_OpClass                   0      0.00%      0.00% # Class of committed instruction
system.cpu.op_class_0::IntAlu                97640467     53.00%     53.00% # Class of committed instruction
system.cpu.op_class_0::IntMult                 114702      0.06%     53.06% # Class of committed instruction
system.cpu.op_class_0::IntDiv                       0      0.00%     53.06% # Class of committed instruction
system.cpu.op_class_0::FloatAdd                     0      0.00%     53.06% # Class of committed instruction
system.cpu.op_class_0::FloatCmp                     0      0.00%     53.06% # Class of committed instruction
system.cpu.op_class_0::FloatCvt                     0      0.00%     53.06% # Class of committed instruction
system.cpu.op_class_0::FloatMult                    0      0.00%     53.06% # Class of committed instruction
system.cpu.op_class_0::FloatMultAcc                 0      0.00%     53.06% # Class of committed instruction
system.cpu.op_class_0::FloatDiv                     0      0.00%     53.06% # Class of committed instruction
system.cpu.op_class_0::FloatMisc                    0      0.00%     53.06% # Class of committed instruction
system.cpu.op_class_0::FloatSqrt                    0      0.00%     53.06% # Class of committed instruction
system.cpu.op_class_0::SimdAdd                      8      0.00%     53.06% # Class of committed instruction
system.cpu.op_class_0::SimdAddAcc                   0      0.00%     53.06% # Class of committed instruction
system.cpu.op_class_0::SimdAlu                     10      0.00%     53.06% # Class of committed instruction
system.cpu.op_class_0::SimdCmp                      8      0.00%     53.06% # Class of committed instruction
system.cpu.op_class_0::SimdCvt                      0      0.00%     53.06% # Class of committed instruction
system.cpu.op_class_0::SimdMisc                     1      0.00%     53.06% # Class of committed instruction
system.cpu.op_class_0::SimdMult                     0      0.00%     53.06% # Class of committed instruction
system.cpu.op_class_0::SimdMultAcc                  0      0.00%     53.06% # Class of committed instruction
system.cpu.op_class_0::SimdShift                    0      0.00%     53.06% # Class of committed instruction
system.cpu.op_class_0::SimdShiftAcc                 0      0.00%     53.06% # Class of committed instruction
system.cpu.op_class_0::SimdDiv                      0      0.00%     53.06% # Class of committed instruction
system.cpu.op_class_0::SimdSqrt                     0      0.00%     53.06% # Class of committed instruction
system.cpu.op_class_0::SimdFloatAdd                 0      0.00%     53.06% # Class of committed instruction
system.cpu.op_class_0::SimdFloatAlu                 0      0.00%     53.06% # Class of committed instruction
system.cpu.op_class_0::SimdFloatCmp                 0      0.00%     53.06% # Class of committed instruction
system.cpu.op_class_0::SimdFloatCvt                 0      0.00%     53.06% # Class of committed instruction
system.cpu.op_class_0::SimdFloatDiv                 0      0.00%     53.06% # Class of committed instruction
system.cpu.op_class_0::SimdFloatMisc               24      0.00%     53.06% # Class of committed instruction
system.cpu.op_class_0::SimdFloatMult                0      0.00%     53.06% # Class of committed instruction
system.cpu.op_class_0::SimdFloatMultAcc             0      0.00%     53.06% # Class of committed instruction
system.cpu.op_class_0::SimdFloatSqrt                0      0.00%     53.06% # Class of committed instruction
system.cpu.op_class_0::SimdReduceAdd                0      0.00%     53.06% # Class of committed instruction
system.cpu.op_class_0::SimdReduceAlu                0      0.00%     53.06% # Class of committed instruction
system.cpu.op_class_0::SimdReduceCmp                0      0.00%     53.06% # Class of committed instruction
system.cpu.op_class_0::SimdFloatReduceAdd            0      0.00%     53.06% # Class of committed instruction
system.cpu.op_class_0::SimdFloatReduceCmp            0      0.00%     53.06% # Class of committed instruction
system.cpu.op_class_0::SimdAes                      0      0.00%     53.06% # Class of committed instruction
system.cpu.op_class_0::SimdAesMix                   0      0.00%     53.06% # Class of committed instruction
system.cpu.op_class_0::SimdSha1Hash                 0      0.00%     53.06% # Class of committed instruction
system.cpu.op_class_0::SimdSha1Hash2                0      0.00%     53.06% # Class of committed instruction
system.cpu.op_class_0::SimdSha256Hash               0      0.00%     53.06% # Class of committed instruction
system.cpu.op_class_0::SimdSha256Hash2              0      0.00%     53.06% # Class of committed instruction
system.cpu.op_class_0::SimdShaSigma2                0      0.00%     53.06% # Class of committed instruction
system.cpu.op_class_0::SimdShaSigma3                0      0.00%     53.06% # Class of committed instruction
system.cpu.op_class_0::SimdPredAlu                  0      0.00%     53.06% # Class of committed instruction
system.cpu.op_class_0::MemRead                2082677      1.13%     54.20% # Class of committed instruction
system.cpu.op_class_0::MemWrite              84380904     45.80%    100.00% # Class of committed instruction
system.cpu.op_class_0::FloatMemRead                 0      0.00%    100.00% # Class of committed instruction
system.cpu.op_class_0::FloatMemWrite                0      0.00%    100.00% # Class of committed instruction
system.cpu.op_class_0::IprAccess                    0      0.00%    100.00% # Class of committed instruction
system.cpu.op_class_0::InstPrefetch                 0      0.00%    100.00% # Class of committed instruction
system.cpu.op_class_0::total                184218801                       # Class of committed instruction
system.cpu.tickCycles                       216821716                       # Number of cycles that the object actually ticked
system.cpu.workload.numSyscalls                    19                       # Number of system calls
system.membus.snoop_filter.hit_multi_requests            0                       # Number of requests hitting in the snoop filter with multiple (>1) holders of the requested data.
system.membus.snoop_filter.hit_multi_snoops            0                       # Number of snoops hitting in the snoop filter with multiple (>1) holders of the requested data.
system.membus.snoop_filter.hit_single_requests       328774                       # Number of requests hitting in the snoop filter with a single holder of the requested data.
system.membus.snoop_filter.hit_single_snoops            0                       # Number of snoops hitting in the snoop filter with a single holder of the requested data.
system.membus.snoop_filter.tot_requests        658043                       # Total number of requests made to the snoop filter.
system.membus.snoop_filter.tot_snoops               0                       # Total number of snoops made to the snoop filter.
system.tol2bus.snoop_filter.hit_multi_requests         3742                       # Number of requests hitting in the snoop filter with multiple (>1) holders of the requested data.
system.tol2bus.snoop_filter.hit_multi_snoops            0                       # Number of snoops hitting in the snoop filter with multiple (>1) holders of the requested data.
system.tol2bus.snoop_filter.hit_single_requests       367818                       # Number of requests hitting in the snoop filter with a single holder of the requested data.
system.tol2bus.snoop_filter.hit_single_snoops          108                       # Number of snoops hitting in the snoop filter with a single holder of the requested data.
system.tol2bus.snoop_filter.tot_requests       735731                       # Total number of requests made to the snoop filter.
system.tol2bus.snoop_filter.tot_snoops            108                       # Total number of snoops made to the snoop filter.
system.clk_domain.clock                          1000                       # Clock period in ticks
system.cpu.branchPred.lookups                10658409                       # Number of BP lookups
system.cpu.branchPred.condPredicted          10650088                       # Number of conditional branches predicted
system.cpu.branchPred.condIncorrect              1468                       # Number of conditional branches incorrect
system.cpu.branchPred.BTBLookups             10650267                       # Number of BTB lookups
system.cpu.branchPred.BTBHits                10648830                       # Number of BTB hits
system.cpu.branchPred.BTBHitPct             99.986507                       # BTB Hit Percentage
system.cpu.branchPred.RASUsed                    2723                       # Number of times the RAS was used to get a target.
system.cpu.branchPred.RASIncorrect                  2                       # Number of incorrect RAS predictions.
system.cpu.branchPred.indirectLookups             201                       # Number of indirect predictor lookups.
system.cpu.branchPred.indirectHits                 20                       # Number of indirect target hits.
system.cpu.branchPred.indirectMisses              181                       # Number of indirect misses.
system.cpu.branchPred.indirectMispredicted          103                       # Number of mispredicted indirect branches.
system.cpu.dcache.demand_hits::.cpu.data     85681434                       # number of demand (read+write) hits
system.cpu.dcache.demand_hits::total         85681434                       # number of demand (read+write) hits
system.cpu.dcache.overall_hits::.cpu.data     85681501                       # number of overall hits
system.cpu.dcache.overall_hits::total        85681501                       # number of overall hits
system.cpu.dcache.demand_misses::.cpu.data       697491                       # number of demand (read+write) misses
system.cpu.dcache.demand_misses::total         697491                       # number of demand (read+write) misses
system.cpu.dcache.overall_misses::.cpu.data       697495                       # number of overall misses
system.cpu.dcache.overall_misses::total        697495                       # number of overall misses
system.cpu.dcache.demand_miss_latency::.cpu.data 125613383971                       # number of demand (read+write) miss cycles
system.cpu.dcache.demand_miss_latency::total 125613383971                       # number of demand (read+write) miss cycles
system.cpu.dcache.overall_miss_latency::.cpu.data 125613383971                       # number of overall miss cycles
system.cpu.dcache.overall_miss_latency::total 125613383971                       # number of overall miss cycles
system.cpu.dcache.demand_accesses::.cpu.data     86378925                       # number of demand (read+write) accesses
system.cpu.dcache.demand_accesses::total     86378925                       # number of demand (read+write) accesses
system.cpu.dcache.overall_accesses::.cpu.data     86378996                       # number of overall (read+write) accesses
system.cpu.dcache.overall_accesses::total     86378996                       # number of overall (read+write) accesses
system.cpu.dcache.demand_miss_rate::.cpu.data     0.008075                       # miss rate for demand accesses
system.cpu.dcache.demand_miss_rate::total     0.008075                       # miss rate for demand accesses
system.cpu.dcache.overall_miss_rate::.cpu.data     0.008075                       # miss rate for overall accesses
system.cpu.dcache.overall_miss_rate::total     0.008075                       # miss rate for overall accesses
system.cpu.dcache.demand_avg_miss_latency::.cpu.data 180093.196860                       # average overall miss latency
system.cpu.dcache.demand_avg_miss_latency::total 180093.196860                       # average overall miss latency
system.cpu.dcache.overall_avg_miss_latency::.cpu.data 180092.164060                       # average overall miss latency
system.cpu.dcache.overall_avg_miss_latency::total 180092.164060                       # average overall miss latency
system.cpu.dcache.blocked_cycles::no_mshrs            0                       # number of cycles access was blocked
system.cpu.dcache.blocked_cycles::no_targets            0                       # number of cycles access was blocked
system.cpu.dcache.blocked::no_mshrs                 0                       # number of cycles access was blocked
system.cpu.dcache.blocked::no_targets               0                       # number of cycles access was blocked
system.cpu.dcache.avg_blocked_cycles::no_mshrs          nan                       # average number of cycles each access was blocked
system.cpu.dcache.avg_blocked_cycles::no_targets          nan                       # average number of cycles each access was blocked
system.cpu.dcache.writebacks::.writebacks       355702                       # number of writebacks
system.cpu.dcache.writebacks::total            355702                       # number of writebacks
system.cpu.dcache.demand_mshr_hits::.cpu.data       329826                       # number of demand (read+write) MSHR hits
system.cpu.dcache.demand_mshr_hits::total       329826                       # number of demand (read+write) MSHR hits
system.cpu.dcache.overall_mshr_hits::.cpu.data       329826                       # number of overall MSHR hits
system.cpu.dcache.overall_mshr_hits::total       329826                       # number of overall MSHR hits
system.cpu.dcache.demand_mshr_misses::.cpu.data       367665                       # number of demand (read+write) MSHR misses
system.cpu.dcache.demand_mshr_misses::total       367665                       # number of demand (read+write) MSHR misses
system.cpu.dcache.overall_mshr_misses::.cpu.data       367667                       # number of overall MSHR misses
system.cpu.dcache.overall_mshr_misses::total       367667                       # number of overall MSHR misses
system.cpu.dcache.demand_mshr_miss_latency::.cpu.data  59343763053                       # number of demand (read+write) MSHR miss cycles
system.cpu.dcache.demand_mshr_miss_latency::total  59343763053                       # number of demand (read+write) MSHR miss cycles
system.cpu.dcache.overall_mshr_miss_latency::.cpu.data  59344141242                       # number of overall MSHR miss cycles
system.cpu.dcache.overall_mshr_miss_latency::total  59344141242                       # number of overall MSHR miss cycles
system.cpu.dcache.demand_mshr_miss_rate::.cpu.data     0.004256                       # mshr miss rate for demand accesses
system.cpu.dcache.demand_mshr_miss_rate::total     0.004256                       # mshr miss rate for demand accesses
system.cpu.dcache.overall_mshr_miss_rate::.cpu.data     0.004256                       # mshr miss rate for overall accesses
system.cpu.dcache.overall_mshr_miss_rate::total     0.004256                       # mshr miss rate for overall accesses
system.cpu.dcache.demand_avg_mshr_miss_latency::.cpu.data 161407.158835                       # average overall mshr miss latency
system.cpu.dcache.demand_avg_mshr_miss_latency::total 161407.158835                       # average overall mshr miss latency
system.cpu.dcache.overall_avg_mshr_miss_latency::.cpu.data 161407.309446                       # average overall mshr miss latency
system.cpu.dcache.overall_avg_mshr_miss_latency::total 161407.309446                       # average overall mshr miss latency
system.cpu.dcache.replacements                 367636                       # number of replacements
system.cpu.dcache.ReadReq_hits::.cpu.data      2022649                       # number of ReadReq hits
system.cpu.dcache.ReadReq_hits::total         2022649                       # number of ReadReq hits
system.cpu.dcache.ReadReq_misses::.cpu.data        19696                       # number of ReadReq misses
system.cpu.dcache.ReadReq_misses::total         19696                       # number of ReadReq misses
system.cpu.dcache.ReadReq_miss_latency::.cpu.data    497984201                       # number of ReadReq miss cycles
system.cpu.dcache.ReadReq_miss_latency::total    497984201                       # number of ReadReq miss cycles
system.cpu.dcache.ReadReq_accesses::.cpu.data      2042345                       # number of ReadReq accesses(hits+misses)
system.cpu.dcache.ReadReq_accesses::total      2042345                       # number of ReadReq accesses(hits+misses)
system.cpu.dcache.ReadReq_miss_rate::.cpu.data     0.009644                       # miss rate for ReadReq accesses
system.cpu.dcache.ReadReq_miss_rate::total     0.009644                       # miss rate for ReadReq accesses
system.cpu.dcache.ReadReq_avg_miss_latency::.cpu.data 25283.519547                       # average ReadReq miss latency
system.cpu.dcache.ReadReq_avg_miss_latency::total 25283.519547                       # average ReadReq miss latency
system.cpu.dcache.ReadReq_mshr_hits::.cpu.data          144                       # number of ReadReq MSHR hits
system.cpu.dcache.ReadReq_mshr_hits::total          144                       # number of ReadReq MSHR hits
system.cpu.dcache.ReadReq_mshr_misses::.cpu.data        19552                       # number of ReadReq MSHR misses
system.cpu.dcache.ReadReq_mshr_misses::total        19552                       # number of ReadReq MSHR misses
system.cpu.dcache.ReadReq_mshr_miss_latency::.cpu.data    462168302                       # number of ReadReq MSHR miss cycles
system.cpu.dcache.ReadReq_mshr_miss_latency::total    462168302                       # number of ReadReq MSHR miss cycles
system.cpu.dcache.ReadReq_mshr_miss_rate::.cpu.data     0.009573                       # mshr miss rate for ReadReq accesses
system.cpu.dcache.ReadReq_mshr_miss_rate::total     0.009573                       # mshr miss rate for ReadReq accesses
system.cpu.dcache.ReadReq_avg_mshr_miss_latency::.cpu.data 23637.904153                       # average ReadReq mshr miss latency
system.cpu.dcache.ReadReq_avg_mshr_miss_latency::total 23637.904153                       # average ReadReq mshr miss latency
system.cpu.dcache.WriteReq_hits::.cpu.data     83658785                       # number of WriteReq hits
system.cpu.dcache.WriteReq_hits::total       83658785                       # number of WriteReq hits
system.cpu.dcache.WriteReq_misses::.cpu.data       677795                       # number of WriteReq misses
system.cpu.dcache.WriteReq_misses::total       677795                       # number of WriteReq misses
system.cpu.dcache.WriteReq_miss_latency::.cpu.data 125115399770                       # number of WriteReq miss cycles
system.cpu.dcache.WriteReq_miss_latency::total 125115399770                       # number of WriteReq miss cycles
system.cpu.dcache.WriteReq_accesses::.cpu.data     84336580                       # number of WriteReq accesses(hits+misses)
system.cpu.dcache.WriteReq_accesses::total     84336580                       # number of WriteReq accesses(hits+misses)
system.cpu.dcache.WriteReq_miss_rate::.cpu.data     0.008037                       # miss rate for WriteReq accesses
system.cpu.dcache.WriteReq_miss_rate::total     0.008037                       # miss rate for WriteReq accesses
system.cpu.dcache.WriteReq_avg_miss_latency::.cpu.data 184591.801017                       # average WriteReq miss latency
system.cpu.dcache.WriteReq_avg_miss_latency::total 184591.801017                       # average WriteReq miss latency
system.cpu.dcache.WriteReq_mshr_hits::.cpu.data       329682                       # number of WriteReq MSHR hits
system.cpu.dcache.WriteReq_mshr_hits::total       329682                       # number of WriteReq MSHR hits
system.cpu.dcache.WriteReq_mshr_misses::.cpu.data       348113                       # number of WriteReq MSHR misses
system.cpu.dcache.WriteReq_mshr_misses::total       348113                       # number of WriteReq MSHR misses
system.cpu.dcache.WriteReq_mshr_miss_latency::.cpu.data  58881594751                       # number of WriteReq MSHR miss cycles
system.cpu.dcache.WriteReq_mshr_miss_latency::total  58881594751                       # number of WriteReq MSHR miss cycles
system.cpu.dcache.WriteReq_mshr_miss_rate::.cpu.data     0.004128                       # mshr miss rate for WriteReq accesses
system.cpu.dcache.WriteReq_mshr_miss_rate::total     0.004128                       # mshr miss rate for WriteReq accesses
system.cpu.dcache.WriteReq_avg_mshr_miss_latency::.cpu.data 169145.061377                       # average WriteReq mshr miss latency
system.cpu.dcache.WriteReq_avg_mshr_miss_latency::total 169145.061377                       # average WriteReq mshr miss latency
system.cpu.dcache.SoftPFReq_hits::.cpu.data           67                       # number of SoftPFReq hits
system.cpu.dcache.SoftPFReq_hits::total            67                       # number of SoftPFReq hits
system.cpu.dcache.SoftPFReq_misses::.cpu.data            4                       # number of SoftPFReq misses
system.cpu.dcache.SoftPFReq_misses::total            4                       # number of SoftPFReq misses
system.cpu.dcache.SoftPFReq_accesses::.cpu.data           71                       # number of SoftPFReq accesses(hits+misses)
system.cpu.dcache.SoftPFReq_accesses::total           71                       # number of SoftPFReq accesses(hits+misses)
system.cpu.dcache.SoftPFReq_miss_rate::.cpu.data     0.056338                       # miss rate for SoftPFReq accesses
system.cpu.dcache.SoftPFReq_miss_rate::total     0.056338                       # miss rate for SoftPFReq accesses
system.cpu.dcache.SoftPFReq_mshr_misses::.cpu.data            2                       # number of SoftPFReq MSHR misses
system.cpu.dcache.SoftPFReq_mshr_misses::total            2                       # number of SoftPFReq MSHR misses
system.cpu.dcache.SoftPFReq_mshr_miss_latency::.cpu.data       378189                       # number of SoftPFReq MSHR miss cycles
system.cpu.dcache.SoftPFReq_mshr_miss_latency::total       378189                       # number of SoftPFReq MSHR miss cycles
system.cpu.dcache.SoftPFReq_mshr_miss_rate::.cpu.data     0.028169                       # mshr miss rate for SoftPFReq accesses
system.cpu.dcache.SoftPFReq_mshr_miss_rate::total     0.028169                       # mshr miss rate for SoftPFReq accesses
system.cpu.dcache.SoftPFReq_avg_mshr_miss_latency::.cpu.data 189094.500000                       # average SoftPFReq mshr miss latency
system.cpu.dcache.SoftPFReq_avg_mshr_miss_latency::total 189094.500000                       # average SoftPFReq mshr miss latency
system.cpu.dcache.LoadLockedReq_hits::.cpu.data           33                       # number of LoadLockedReq hits
system.cpu.dcache.LoadLockedReq_hits::total           33                       # number of LoadLockedReq hits
system.cpu.dcache.LoadLockedReq_misses::.cpu.data            1                       # number of LoadLockedReq misses
system.cpu.dcache.LoadLockedReq_misses::total            1                       # number of LoadLockedReq misses
system.cpu.dcache.LoadLockedReq_miss_latency::.cpu.data        25346                       # number of LoadLockedReq miss cycles
system.cpu.dcache.LoadLockedReq_miss_latency::total        25346                       # number of LoadLockedReq miss cycles
system.cpu.dcache.LoadLockedReq_accesses::.cpu.data           34                       # number of LoadLockedReq accesses(hits+misses)
system.cpu.dcache.LoadLockedReq_accesses::total           34                       # number of LoadLockedReq accesses(hits+misses)
system.cpu.dcache.LoadLockedReq_miss_rate::.cpu.data     0.029412                       # miss rate for LoadLockedReq accesses
system.cpu.dcache.LoadLockedReq_miss_rate::total     0.029412                       # miss rate for LoadLockedReq accesses
system.cpu.dcache.LoadLockedReq_avg_miss_latency::.cpu.data        25346                       # average LoadLockedReq miss latency
system.cpu.dcache.LoadLockedReq_avg_miss_latency::total        25346                       # average LoadLockedReq miss latency
system.cpu.dcache.LoadLockedReq_mshr_misses::.cpu.data            1                       # number of LoadLockedReq MSHR misses
system.cpu.dcache.LoadLockedReq_mshr_misses::total            1                       # number of LoadLockedReq MSHR misses
system.cpu.dcache.LoadLockedReq_mshr_miss_latency::.cpu.data        24012                       # number of LoadLockedReq MSHR miss cycles
system.cpu.dcache.LoadLockedReq_mshr_miss_latency::total        24012                       # number of LoadLockedReq MSHR miss cycles
system.cpu.dcache.LoadLockedReq_mshr_miss_rate::.cpu.data     0.029412                       # mshr miss rate for LoadLockedReq accesses
system.cpu.dcache.LoadLockedReq_mshr_miss_rate::total     0.029412                       # mshr miss rate for LoadLockedReq accesses
system.cpu.dcache.LoadLockedReq_avg_mshr_miss_latency::.cpu.data        24012                       # average LoadLockedReq mshr miss latency
system.cpu.dcache.LoadLockedReq_avg_mshr_miss_latency::total        24012                       # average LoadLockedReq mshr miss latency
system.cpu.dcache.StoreCondReq_hits::.cpu.data           34                       # number of StoreCondReq hits
system.cpu.dcache.StoreCondReq_hits::total           34                       # number of StoreCondReq hits
system.cpu.dcache.StoreCondReq_accesses::.cpu.data           34                       # number of StoreCondReq accesses(hits+misses)
system.cpu.dcache.StoreCondReq_accesses::total           34                       # number of StoreCondReq accesses(hits+misses)
system.cpu.dcache.power_state.pwrStateResidencyTicks::UNDEFINED 201503300633                       # Cumulative time (in ticks) in various power states
system.cpu.dcache.tags.tagsinuse            31.995819                       # Cycle average of tags in use
system.cpu.dcache.tags.total_refs            86049236                       # Total number of references to valid blocks.
system.cpu.dcache.tags.sampled_refs            367668                       # Sample count of references to valid blocks.
system.cpu.dcache.tags.avg_refs            234.040591                       # Average number of references to valid blocks.
system.cpu.dcache.tags.warmup_cycle            423545                       # Cycle when the warmup percentage was hit.
system.cpu.dcache.tags.occ_blocks::.cpu.data    31.995819                       # Average occupied blocks per requestor
system.cpu.dcache.tags.occ_percent::.cpu.data     0.999869                       # Average percentage of cache occupancy
system.cpu.dcache.tags.occ_percent::total     0.999869                       # Average percentage of cache occupancy
system.cpu.dcache.tags.occ_task_id_blocks::1024           32                       # Occupied blocks per task id
system.cpu.dcache.tags.age_task_id_blocks_1024::0           17                       # Occupied blocks per task id
system.cpu.dcache.tags.age_task_id_blocks_1024::1           15                       # Occupied blocks per task id
system.cpu.dcache.tags.occ_task_id_percent::1024            1                       # Percentage of cache occupancy per task id
system.cpu.dcache.tags.tag_accesses          86746732                       # Number of tag accesses
system.cpu.dcache.tags.data_accesses         86746732                       # Number of data accesses
system.cpu.dcache.tags.power_state.pwrStateResidencyTicks::UNDEFINED 201503300633                       # Cumulative time (in ticks) in various power states
system.cpu.dtb.instHits                             0                       # ITB inst hits
system.cpu.dtb.instMisses                           0                       # ITB inst misses
system.cpu.dtb.readHits                             0                       # DTB read hits
system.cpu.dtb.readMisses                           0                       # DTB read misses
system.cpu.dtb.writeHits                            0                       # DTB write hits
system.cpu.dtb.writeMisses                          0                       # DTB write misses
system.cpu.dtb.inserts                              0                       # Number of times an entry is inserted into the TLB
system.cpu.dtb.flushTlb                             0                       # Number of times complete TLB was flushed
system.cpu.dtb.flushTlbMva                          0                       # Number of times TLB was flushed by MVA
system.cpu.dtb.flushTlbMvaAsid                      0                       # Number of times TLB was flushed by MVA & ASID
system.cpu.dtb.flushTlbAsid                         0                       # Number of times TLB was flushed by ASID
system.cpu.dtb.flushedEntries                       0                       # Number of entries that have been flushed from TLB
system.cpu.dtb.alignFaults                          0                       # Number of TLB faults due to alignment restrictions
system.cpu.dtb.prefetchFaults                       0                       # Number of TLB faults due to prefetch
system.cpu.dtb.domainFaults                         0                       # Number of TLB faults due to domain restrictions
system.cpu.dtb.permsFaults                          0                       # Number of TLB faults due to permissions restrictions
system.cpu.dtb.readAccesses                         0                       # DTB read accesses
system.cpu.dtb.writeAccesses                        0                       # DTB write accesses
system.cpu.dtb.instAccesses                         0                       # ITB inst accesses
system.cpu.dtb.hits                                 0                       # Total TLB (inst and data) hits
system.cpu.dtb.misses                               0                       # Total TLB (inst and data) misses
system.cpu.dtb.accesses                             0                       # Total TLB (inst and data) accesses
system.cpu.dtb.stage2_mmu.stage2_tlb.instHits            0                       # ITB inst hits
system.cpu.dtb.stage2_mmu.stage2_tlb.instMisses            0                       # ITB inst misses
system.cpu.dtb.stage2_mmu.stage2_tlb.readHits            0                       # DTB read hits
system.cpu.dtb.stage2_mmu.stage2_tlb.readMisses            0                       # DTB read misses
system.cpu.dtb.stage2_mmu.stage2_tlb.writeHits            0                       # DTB write hits
system.cpu.dtb.stage2_mmu.stage2_tlb.writeMisses            0                       # DTB write misses
system.cpu.dtb.stage2_mmu.stage2_tlb.inserts            0                       # Number of times an entry is inserted into the TLB
system.cpu.dtb.stage2_mmu.stage2_tlb.flushTlb            0                       # Number of times complete TLB was flushed
system.cpu.dtb.stage2_mmu.stage2_tlb.flushTlbMva            0                       # Number of times TLB was flushed by MVA
system.cpu.dtb.stage2_mmu.stage2_tlb.flushTlbMvaAsid            0                       # Number of times TLB was flushed by MVA & ASID
system.cpu.dtb.stage2_mmu.stage2_tlb.flushTlbAsid            0                       # Number of times TLB was flushed by ASID
system.cpu.dtb.stage2_mmu.stage2_tlb.flushedEntries            0                       # Number of entries that have been flushed from TLB
system.cpu.dtb.stage2_mmu.stage2_tlb.alignFaults            0                       # Number of TLB faults due to alignment restrictions
system.cpu.dtb.stage2_mmu.stage2_tlb.prefetchFaults            0                       # Number of TLB faults due to prefetch
system.cpu.dtb.stage2_mmu.stage2_tlb.domainFaults            0                       # Number of TLB faults due to domain restrictions
system.cpu.dtb.stage2_mmu.stage2_tlb.permsFaults            0                       # Number of TLB faults due to permissions restrictions
system.cpu.dtb.stage2_mmu.stage2_tlb.readAccesses            0                       # DTB read accesses
system.cpu.dtb.stage2_mmu.stage2_tlb.writeAccesses            0                       # DTB write accesses
system.cpu.dtb.stage2_mmu.stage2_tlb.instAccesses            0                       # ITB inst accesses
system.cpu.dtb.stage2_mmu.stage2_tlb.hits            0                       # Total TLB (inst and data) hits
system.cpu.dtb.stage2_mmu.stage2_tlb.misses            0                       # Total TLB (inst and data) misses
system.cpu.dtb.stage2_mmu.stage2_tlb.accesses            0                       # Total TLB (inst and data) accesses
system.cpu.dtb.stage2_mmu.stage2_tlb.walker.walks            0                       # Table walker walks requested
system.cpu.dtb.stage2_mmu.stage2_tlb.walker.requestOrigin_Requested::Data            0                       # Table walker requests started/completed, data/inst
system.cpu.dtb.stage2_mmu.stage2_tlb.walker.requestOrigin_Requested::Inst            0                       # Table walker requests started/completed, data/inst
system.cpu.dtb.stage2_mmu.stage2_tlb.walker.requestOrigin_Requested::total            0                       # Table walker requests started/completed, data/inst
system.cpu.dtb.stage2_mmu.stage2_tlb.walker.requestOrigin_Completed::Data            0                       # Table walker requests started/completed, data/inst
system.cpu.dtb.stage2_mmu.stage2_tlb.walker.requestOrigin_Completed::Inst            0                       # Table walker requests started/completed, data/inst
system.cpu.dtb.stage2_mmu.stage2_tlb.walker.requestOrigin_Completed::total            0                       # Table walker requests started/completed, data/inst
system.cpu.dtb.stage2_mmu.stage2_tlb.walker.requestOrigin::total            0                       # Table walker requests started/completed, data/inst
system.cpu.dtb.stage2_mmu.stage2_tlb.walker.power_state.pwrStateResidencyTicks::UNDEFINED 201503300633                       # Cumulative time (in ticks) in various power states
system.cpu.dtb.walker.walks                         0                       # Table walker walks requested
system.cpu.dtb.walker.requestOrigin_Requested::Data            0                       # Table walker requests started/completed, data/inst
system.cpu.dtb.walker.requestOrigin_Requested::Inst            0                       # Table walker requests started/completed, data/inst
system.cpu.dtb.walker.requestOrigin_Requested::total            0                       # Table walker requests started/completed, data/inst
system.cpu.dtb.walker.requestOrigin_Completed::Data            0                       # Table walker requests started/completed, data/inst
system.cpu.dtb.walker.requestOrigin_Completed::Inst            0                       # Table walker requests started/completed, data/inst
system.cpu.dtb.walker.requestOrigin_Completed::total            0                       # Table walker requests started/completed, data/inst
system.cpu.dtb.walker.requestOrigin::total            0                       # Table walker requests started/completed, data/inst
system.cpu.dtb.walker.power_state.pwrStateResidencyTicks::UNDEFINED 201503300633                       # Cumulative time (in ticks) in various power states
system.cpu.fetch2.intInstructions            45071541                       # Number of integer instructions successfully decoded
system.cpu.fetch2.fpInstructions                    0                       # Number of floating point instructions successfully decoded
system.cpu.fetch2.vecInstructions                   0                       # Number of SIMD instructions successfully decoded
system.cpu.fetch2.loadInstructions            2086673                       # Number of memory load instructions successfully decoded
system.cpu.fetch2.storeInstructions            169267                       # Number of memory store instructions successfully decoded
system.cpu.fetch2.amoInstructions                   0                       # Number of memory atomic instructions successfully decoded
system.cpu.icache.demand_hits::.cpu.inst     31973044                       # number of demand (read+write) hits
system.cpu.icache.demand_hits::total         31973044                       # number of demand (read+write) hits
system.cpu.icache.overall_hits::.cpu.inst     31973044                       # number of overall hits
system.cpu.icache.overall_hits::total        31973044                       # number of overall hits
system.cpu.icache.demand_misses::.cpu.inst          245                       # number of demand (read+write) misses
system.cpu.icache.demand_misses::total            245                       # number of demand (read+write) misses
system.cpu.icache.overall_misses::.cpu.inst          245                       # number of overall misses
system.cpu.icache.overall_misses::total           245                       # number of overall misses
system.cpu.icache.demand_miss_latency::.cpu.inst     33443380                       # number of demand (read+write) miss cycles
system.cpu.icache.demand_miss_latency::total     33443380                       # number of demand (read+write) miss cycles
system.cpu.icache.overall_miss_latency::.cpu.inst     33443380                       # number of overall miss cycles
system.cpu.icache.overall_miss_latency::total     33443380                       # number of overall miss cycles
system.cpu.icache.demand_accesses::.cpu.inst     31973289                       # number of demand (read+write) accesses
system.cpu.icache.demand_accesses::total     31973289                       # number of demand (read+write) accesses
system.cpu.icache.overall_accesses::.cpu.inst     31973289                       # number of overall (read+write) accesses
system.cpu.icache.overall_accesses::total     31973289                       # number of overall (read+write) accesses
system.cpu.icache.demand_miss_rate::.cpu.inst     0.000008                       # miss rate for demand accesses
system.cpu.icache.demand_miss_rate::total     0.000008                       # miss rate for demand accesses
system.cpu.icache.overall_miss_rate::.cpu.inst     0.000008                       # miss rate for overall accesses
system.cpu.icache.overall_miss_rate::total     0.000008                       # miss rate for overall accesses
system.cpu.icache.demand_avg_miss_latency::.cpu.inst 136503.591837                       # average overall miss latency
system.cpu.icache.demand_avg_miss_latency::total 136503.591837                       # average overall miss latency
system.cpu.icache.overall_avg_miss_latency::.cpu.inst 136503.591837                       # average overall miss latency
system.cpu.icache.overall_avg_miss_latency::total 136503.591837                       # average overall miss latency
system.cpu.icache.blocked_cycles::no_mshrs            0                       # number of cycles access was blocked
system.cpu.icache.blocked_cycles::no_targets            0                       # number of cycles access was blocked
system.cpu.icache.blocked::no_mshrs                 0                       # number of cycles access was blocked
system.cpu.icache.blocked::no_targets               0                       # number of cycles access was blocked
system.cpu.icache.avg_blocked_cycles::no_mshrs          nan                       # average number of cycles each access was blocked
system.cpu.icache.avg_blocked_cycles::no_targets          nan                       # average number of cycles each access was blocked
system.cpu.icache.writebacks::.writebacks          182                       # number of writebacks
system.cpu.icache.writebacks::total               182                       # number of writebacks
system.cpu.icache.demand_mshr_misses::.cpu.inst          245                       # number of demand (read+write) MSHR misses
system.cpu.icache.demand_mshr_misses::total          245                       # number of demand (read+write) MSHR misses
system.cpu.icache.overall_mshr_misses::.cpu.inst          245                       # number of overall MSHR misses
system.cpu.icache.overall_mshr_misses::total          245                       # number of overall MSHR misses
system.cpu.icache.demand_mshr_miss_latency::.cpu.inst     33116550                       # number of demand (read+write) MSHR miss cycles
system.cpu.icache.demand_mshr_miss_latency::total     33116550                       # number of demand (read+write) MSHR miss cycles
system.cpu.icache.overall_mshr_miss_latency::.cpu.inst     33116550                       # number of overall MSHR miss cycles
system.cpu.icache.overall_mshr_miss_latency::total     33116550                       # number of overall MSHR miss cycles
system.cpu.icache.demand_mshr_miss_rate::.cpu.inst     0.000008                       # mshr miss rate for demand accesses
system.cpu.icache.demand_mshr_miss_rate::total     0.000008                       # mshr miss rate for demand accesses
system.cpu.icache.overall_mshr_miss_rate::.cpu.inst     0.000008                       # mshr miss rate for overall accesses
system.cpu.icache.overall_mshr_miss_rate::total     0.000008                       # mshr miss rate for overall accesses
system.cpu.icache.demand_avg_mshr_miss_latency::.cpu.inst 135169.591837                       # average overall mshr miss latency
system.cpu.icache.demand_avg_mshr_miss_latency::total 135169.591837                       # average overall mshr miss latency
system.cpu.icache.overall_avg_mshr_miss_latency::.cpu.inst 135169.591837                       # average overall mshr miss latency
system.cpu.icache.overall_avg_mshr_miss_latency::total 135169.591837                       # average overall mshr miss latency
system.cpu.icache.replacements                    182                       # number of replacements
system.cpu.icache.ReadReq_hits::.cpu.inst     31973044                       # number of ReadReq hits
system.cpu.icache.ReadReq_hits::total        31973044                       # number of ReadReq hits
system.cpu.icache.ReadReq_misses::.cpu.inst          245                       # number of ReadReq misses
system.cpu.icache.ReadReq_misses::total           245                       # number of ReadReq misses
system.cpu.icache.ReadReq_miss_latency::.cpu.inst     33443380                       # number of ReadReq miss cycles
system.cpu.icache.ReadReq_miss_latency::total     33443380                       # number of ReadReq miss cycles
system.cpu.icache.ReadReq_accesses::.cpu.inst     31973289                       # number of ReadReq accesses(hits+misses)
system.cpu.icache.ReadReq_accesses::total     31973289                       # number of ReadReq accesses(hits+misses)
system.cpu.icache.ReadReq_miss_rate::.cpu.inst     0.000008                       # miss rate for ReadReq accesses
system.cpu.icache.ReadReq_miss_rate::total     0.000008                       # miss rate for ReadReq accesses
system.cpu.icache.ReadReq_avg_miss_latency::.cpu.inst 136503.591837                       # average ReadReq miss latency
system.cpu.icache.ReadReq_avg_miss_latency::total 136503.591837                       # average ReadReq miss latency
system.cpu.icache.ReadReq_mshr_misses::.cpu.inst          245                       # number of ReadReq MSHR misses
system.cpu.icache.ReadReq_mshr_misses::total          245                       # number of ReadReq MSHR misses
system.cpu.icache.ReadReq_mshr_miss_latency::.cpu.inst     33116550                       # number of ReadReq MSHR miss cycles
system.cpu.icache.ReadReq_mshr_miss_latency::total     33116550                       # number of ReadReq MSHR miss cycles
system.cpu.icache.ReadReq_mshr_miss_rate::.cpu.inst     0.000008                       # mshr miss rate for ReadReq accesses
system.cpu.icache.ReadReq_mshr_miss_rate::total     0.000008                       # mshr miss rate for ReadReq accesses
system.cpu.icache.ReadReq_avg_mshr_miss_latency::.cpu.inst 135169.591837                       # average ReadReq mshr miss latency
system.cpu.icache.ReadReq_avg_mshr_miss_latency::total 135169.591837                       # average ReadReq mshr miss latency
system.cpu.icache.power_state.pwrStateResidencyTicks::UNDEFINED 201503300633                       # Cumulative time (in ticks) in various power states
system.cpu.icache.tags.tagsinuse            61.271769                       # Cycle average of tags in use
system.cpu.icache.tags.total_refs            31973289                       # Total number of references to valid blocks.
system.cpu.icache.tags.sampled_refs               245                       # Sample count of references to valid blocks.
system.cpu.icache.tags.avg_refs          130503.220408                       # Average number of references to valid blocks.
system.cpu.icache.tags.warmup_cycle            169418                       # Cycle when the warmup percentage was hit.
system.cpu.icache.tags.occ_blocks::.cpu.inst    61.271769                       # Average occupied blocks per requestor
system.cpu.icache.tags.occ_percent::.cpu.inst     0.957371                       # Average percentage of cache occupancy
system.cpu.icache.tags.occ_percent::total     0.957371                       # Average percentage of cache occupancy
system.cpu.icache.tags.occ_task_id_blocks::1024           63                       # Occupied blocks per task id
system.cpu.icache.tags.age_task_id_blocks_1024::4           63                       # Occupied blocks per task id
system.cpu.icache.tags.occ_task_id_percent::1024     0.984375                       # Percentage of cache occupancy per task id
system.cpu.icache.tags.tag_accesses          31973534                       # Number of tag accesses
system.cpu.icache.tags.data_accesses         31973534                       # Number of data accesses
system.cpu.icache.tags.power_state.pwrStateResidencyTicks::UNDEFINED 201503300633                       # Cumulative time (in ticks) in various power states
system.cpu.itb.instHits                             0                       # ITB inst hits
system.cpu.itb.instMisses                           0                       # ITB inst misses
system.cpu.itb.readHits                             0                       # DTB read hits
system.cpu.itb.readMisses                           0                       # DTB read misses
system.cpu.itb.writeHits                            0                       # DTB write hits
system.cpu.itb.writeMisses                          0                       # DTB write misses
system.cpu.itb.inserts                              0                       # Number of times an entry is inserted into the TLB
system.cpu.itb.flushTlb                             0                       # Number of times complete TLB was flushed
system.cpu.itb.flushTlbMva                          0                       # Number of times TLB was flushed by MVA
system.cpu.itb.flushTlbMvaAsid                      0                       # Number of times TLB was flushed by MVA & ASID
system.cpu.itb.flushTlbAsid                         0                       # Number of times TLB was flushed by ASID
system.cpu.itb.flushedEntries                       0                       # Number of entries that have been flushed from TLB
system.cpu.itb.alignFaults                          0                       # Number of TLB faults due to alignment restrictions
system.cpu.itb.prefetchFaults                       0                       # Number of TLB faults due to prefetch
system.cpu.itb.domainFaults                         0                       # Number of TLB faults due to domain restrictions
system.cpu.itb.permsFaults                          0                       # Number of TLB faults due to permissions restrictions
system.cpu.itb.readAccesses                         0                       # DTB read accesses
system.cpu.itb.writeAccesses                        0                       # DTB write accesses
system.cpu.itb.instAccesses                         0                       # ITB inst accesses
system.cpu.itb.hits                                 0                       # Total TLB (inst and data) hits
system.cpu.itb.misses                               0                       # Total TLB (inst and data) misses
system.cpu.itb.accesses                             0                       # Total TLB (inst and data) accesses
system.cpu.itb.stage2_mmu.stage2_tlb.instHits            0                       # ITB inst hits
system.cpu.itb.stage2_mmu.stage2_tlb.instMisses            0                       # ITB inst misses
system.cpu.itb.stage2_mmu.stage2_tlb.readHits            0                       # DTB read hits
system.cpu.itb.stage2_mmu.stage2_tlb.readMisses            0                       # DTB read misses
system.cpu.itb.stage2_mmu.stage2_tlb.writeHits            0                       # DTB write hits
system.cpu.itb.stage2_mmu.stage2_tlb.writeMisses            0                       # DTB write misses
system.cpu.itb.stage2_mmu.stage2_tlb.inserts            0                       # Number of times an entry is inserted into the TLB
system.cpu.itb.stage2_mmu.stage2_tlb.flushTlb            0                       # Number of times complete TLB was flushed
system.cpu.itb.stage2_mmu.stage2_tlb.flushTlbMva            0                       # Number of times TLB was flushed by MVA
system.cpu.itb.stage2_mmu.stage2_tlb.flushTlbMvaAsid            0                       # Number of times TLB was flushed by MVA & ASID
system.cpu.itb.stage2_mmu.stage2_tlb.flushTlbAsid            0                       # Number of times TLB was flushed by ASID
system.cpu.itb.stage2_mmu.stage2_tlb.flushedEntries            0                       # Number of entries that have been flushed from TLB
system.cpu.itb.stage2_mmu.stage2_tlb.alignFaults            0                       # Number of TLB faults due to alignment restrictions
system.cpu.itb.stage2_mmu.stage2_tlb.prefetchFaults            0                       # Number of TLB faults due to prefetch
system.cpu.itb.stage2_mmu.stage2_tlb.domainFaults            0                       # Number of TLB faults due to domain restrictions
system.cpu.itb.stage2_mmu.stage2_tlb.permsFaults            0                       # Number of TLB faults due to permissions restrictions
system.cpu.itb.stage2_mmu.stage2_tlb.readAccesses            0                       # DTB read accesses
system.cpu.itb.stage2_mmu.stage2_tlb.writeAccesses            0                       # DTB write accesses
system.cpu.itb.stage2_mmu.stage2_tlb.instAccesses            0                       # ITB inst accesses
system.cpu.itb.stage2_mmu.stage2_tlb.hits            0                       # Total TLB (inst and data) hits
system.cpu.itb.stage2_mmu.stage2_tlb.misses            0                       # Total TLB (inst and data) misses
system.cpu.itb.stage2_mmu.stage2_tlb.accesses            0                       # Total TLB (inst and data) accesses
system.cpu.itb.stage2_mmu.stage2_tlb.walker.walks            0                       # Table walker walks requested
system.cpu.itb.stage2_mmu.stage2_tlb.walker.requestOrigin_Requested::Data            0                       # Table walker requests started/completed, data/inst
system.cpu.itb.stage2_mmu.stage2_tlb.walker.requestOrigin_Requested::Inst            0                       # Table walker requests started/completed, data/inst
system.cpu.itb.stage2_mmu.stage2_tlb.walker.requestOrigin_Requested::total            0                       # Table walker requests started/completed, data/inst
system.cpu.itb.stage2_mmu.stage2_tlb.walker.requestOrigin_Completed::Data            0                       # Table walker requests started/completed, data/inst
system.cpu.itb.stage2_mmu.stage2_tlb.walker.requestOrigin_Completed::Inst            0                       # Table walker requests started/completed, data/inst
system.cpu.itb.stage2_mmu.stage2_tlb.walker.requestOrigin_Completed::total            0                       # Table walker requests started/completed, data/inst
system.cpu.itb.stage2_mmu.stage2_tlb.walker.requestOrigin::total            0                       # Table walker requests started/completed, data/inst
system.cpu.itb.stage2_mmu.stage2_tlb.walker.power_state.pwrStateResidencyTicks::UNDEFINED 201503300633                       # Cumulative time (in ticks) in various power states
system.cpu.itb.walker.walks                         0                       # Table walker walks requested
system.cpu.itb.walker.requestOrigin_Requested::Data            0                       # Table walker requests started/completed, data/inst
system.cpu.itb.walker.requestOrigin_Requested::Inst            0                       # Table walker requests started/completed, data/inst
system.cpu.itb.walker.requestOrigin_Requested::total            0                       # Table walker requests started/completed, data/inst
system.cpu.itb.walker.requestOrigin_Completed::Data            0                       # Table walker requests started/completed, data/inst
system.cpu.itb.walker.requestOrigin_Completed::Inst            0                       # Table walker requests started/completed, data/inst
system.cpu.itb.walker.requestOrigin_Completed::total            0                       # Table walker requests started/completed, data/inst
system.cpu.itb.walker.requestOrigin::total            0                       # Table walker requests started/completed, data/inst
system.cpu.itb.walker.power_state.pwrStateResidencyTicks::UNDEFINED 201503300633                       # Cumulative time (in ticks) in various power states
system.cpu.power_state.pwrStateResidencyTicks::ON 201503300633                       # Cumulative time (in ticks) in various power states
system.cpu.thread_0.numInsts                100000000                       # Number of Instructions committed
system.cpu.thread_0.numOps                  184218801                       # Number of Ops committed
system.cpu.thread_0.numMemRefs                      0                       # Number of Memory References
system.cpu_clk_domain.clock                       667                       # Clock period in ticks
system.cpu_voltage_domain.voltage                   1                       # Voltage in Volts
system.l2.demand_hits::.cpu.inst                   88                       # number of demand (read+write) hits
system.l2.demand_hits::.cpu.data                38569                       # number of demand (read+write) hits
system.l2.demand_hits::total                    38657                       # number of demand (read+write) hits
system.l2.overall_hits::.cpu.inst                  88                       # number of overall hits
system.l2.overall_hits::.cpu.data               38569                       # number of overall hits
system.l2.overall_hits::total                   38657                       # number of overall hits
system.l2.demand_misses::.cpu.inst                157                       # number of demand (read+write) misses
system.l2.demand_misses::.cpu.data             329099                       # number of demand (read+write) misses
system.l2.demand_misses::total                 329256                       # number of demand (read+write) misses
system.l2.overall_misses::.cpu.inst               157                       # number of overall misses
system.l2.overall_misses::.cpu.data            329099                       # number of overall misses
system.l2.overall_misses::total                329256                       # number of overall misses
system.l2.demand_miss_latency::.cpu.inst     29609464                       # number of demand (read+write) miss cycles
system.l2.demand_miss_latency::.cpu.data  57905963179                       # number of demand (read+write) miss cycles
system.l2.demand_miss_latency::total      57935572643                       # number of demand (read+write) miss cycles
system.l2.overall_miss_latency::.cpu.inst     29609464                       # number of overall miss cycles
system.l2.overall_miss_latency::.cpu.data  57905963179                       # number of overall miss cycles
system.l2.overall_miss_latency::total     57935572643                       # number of overall miss cycles
system.l2.demand_accesses::.cpu.inst              245                       # number of demand (read+write) accesses
system.l2.demand_accesses::.cpu.data           367668                       # number of demand (read+write) accesses
system.l2.demand_accesses::total               367913                       # number of demand (read+write) accesses
system.l2.overall_accesses::.cpu.inst             245                       # number of overall (read+write) accesses
system.l2.overall_accesses::.cpu.data          367668                       # number of overall (read+write) accesses
system.l2.overall_accesses::total              367913                       # number of overall (read+write) accesses
system.l2.demand_miss_rate::.cpu.inst        0.640816                       # miss rate for demand accesses
system.l2.demand_miss_rate::.cpu.data        0.895098                       # miss rate for demand accesses
system.l2.demand_miss_rate::total            0.894929                       # miss rate for demand accesses
system.l2.overall_miss_rate::.cpu.inst       0.640816                       # miss rate for overall accesses
system.l2.overall_miss_rate::.cpu.data       0.895098                       # miss rate for overall accesses
system.l2.overall_miss_rate::total           0.894929                       # miss rate for overall accesses
system.l2.demand_avg_miss_latency::.cpu.inst 188595.312102                       # average overall miss latency
system.l2.demand_avg_miss_latency::.cpu.data 175953.020760                       # average overall miss latency
system.l2.demand_avg_miss_latency::total 175959.049017                       # average overall miss latency
system.l2.overall_avg_miss_latency::.cpu.inst 188595.312102                       # average overall miss latency
system.l2.overall_avg_miss_latency::.cpu.data 175953.020760                       # average overall miss latency
system.l2.overall_avg_miss_latency::total 175959.049017                       # average overall miss latency
system.l2.blocked_cycles::no_mshrs                  0                       # number of cycles access was blocked
system.l2.blocked_cycles::no_targets                0                       # number of cycles access was blocked
system.l2.blocked::no_mshrs                         0                       # number of cycles access was blocked
system.l2.blocked::no_targets                       0                       # number of cycles access was blocked
system.l2.avg_blocked_cycles::no_mshrs            nan                       # average number of cycles each access was blocked
system.l2.avg_blocked_cycles::no_targets          nan                       # average number of cycles each access was blocked
system.l2.writebacks::.writebacks              328508                       # number of writebacks
system.l2.writebacks::total                    328508                       # number of writebacks
system.l2.demand_mshr_hits::.cpu.data               2                       # number of demand (read+write) MSHR hits
system.l2.demand_mshr_hits::total                   2                       # number of demand (read+write) MSHR hits
system.l2.overall_mshr_hits::.cpu.data              2                       # number of overall MSHR hits
system.l2.overall_mshr_hits::total                  2                       # number of overall MSHR hits
system.l2.demand_mshr_misses::.cpu.inst           157                       # number of demand (read+write) MSHR misses
system.l2.demand_mshr_misses::.cpu.data        329097                       # number of demand (read+write) MSHR misses
system.l2.demand_mshr_misses::total            329254                       # number of demand (read+write) MSHR misses
system.l2.overall_mshr_misses::.cpu.inst          157                       # number of overall MSHR misses
system.l2.overall_mshr_misses::.cpu.data       329097                       # number of overall MSHR misses
system.l2.overall_mshr_misses::total           329254                       # number of overall MSHR misses
system.l2.demand_mshr_miss_latency::.cpu.inst     27460155                       # number of demand (read+write) MSHR miss cycles
system.l2.demand_mshr_miss_latency::.cpu.data  53369686519                       # number of demand (read+write) MSHR miss cycles
system.l2.demand_mshr_miss_latency::total  53397146674                       # number of demand (read+write) MSHR miss cycles
system.l2.overall_mshr_miss_latency::.cpu.inst     27460155                       # number of overall MSHR miss cycles
system.l2.overall_mshr_miss_latency::.cpu.data  53369686519                       # number of overall MSHR miss cycles
system.l2.overall_mshr_miss_latency::total  53397146674                       # number of overall MSHR miss cycles
system.l2.demand_mshr_miss_rate::.cpu.inst     0.640816                       # mshr miss rate for demand accesses
system.l2.demand_mshr_miss_rate::.cpu.data     0.895093                       # mshr miss rate for demand accesses
system.l2.demand_mshr_miss_rate::total       0.894924                       # mshr miss rate for demand accesses
system.l2.overall_mshr_miss_rate::.cpu.inst     0.640816                       # mshr miss rate for overall accesses
system.l2.overall_mshr_miss_rate::.cpu.data     0.895093                       # mshr miss rate for overall accesses
system.l2.overall_mshr_miss_rate::total      0.894924                       # mshr miss rate for overall accesses
system.l2.demand_avg_mshr_miss_latency::.cpu.inst 174905.445860                       # average overall mshr miss latency
system.l2.demand_avg_mshr_miss_latency::.cpu.data 162170.079092                       # average overall mshr miss latency
system.l2.demand_avg_mshr_miss_latency::total 162176.151767                       # average overall mshr miss latency
system.l2.overall_avg_mshr_miss_latency::.cpu.inst 174905.445860                       # average overall mshr miss latency
system.l2.overall_avg_mshr_miss_latency::.cpu.data 162170.079092                       # average overall mshr miss latency
system.l2.overall_avg_mshr_miss_latency::total 162176.151767                       # average overall mshr miss latency
system.l2.replacements                         328776                       # number of replacements
system.l2.WritebackDirty_hits::.writebacks       355702                       # number of WritebackDirty hits
system.l2.WritebackDirty_hits::total           355702                       # number of WritebackDirty hits
system.l2.WritebackDirty_accesses::.writebacks       355702                       # number of WritebackDirty accesses(hits+misses)
system.l2.WritebackDirty_accesses::total       355702                       # number of WritebackDirty accesses(hits+misses)
system.l2.WritebackClean_hits::.writebacks          170                       # number of WritebackClean hits
system.l2.WritebackClean_hits::total              170                       # number of WritebackClean hits
system.l2.WritebackClean_accesses::.writebacks          170                       # number of WritebackClean accesses(hits+misses)
system.l2.WritebackClean_accesses::total          170                       # number of WritebackClean accesses(hits+misses)
system.l2.CleanEvict_mshr_misses::.writebacks            1                       # number of CleanEvict MSHR misses
system.l2.CleanEvict_mshr_misses::total             1                       # number of CleanEvict MSHR misses
system.l2.CleanEvict_mshr_miss_rate::.writebacks          inf                       # mshr miss rate for CleanEvict accesses
system.l2.CleanEvict_mshr_miss_rate::total          inf                       # mshr miss rate for CleanEvict accesses
system.l2.ReadExReq_hits::.cpu.data             19105                       # number of ReadExReq hits
system.l2.ReadExReq_hits::total                 19105                       # number of ReadExReq hits
system.l2.ReadExReq_misses::.cpu.data          329008                       # number of ReadExReq misses
system.l2.ReadExReq_misses::total              329008                       # number of ReadExReq misses
system.l2.ReadExReq_miss_latency::.cpu.data  57887296517                       # number of ReadExReq miss cycles
system.l2.ReadExReq_miss_latency::total   57887296517                       # number of ReadExReq miss cycles
system.l2.ReadExReq_accesses::.cpu.data        348113                       # number of ReadExReq accesses(hits+misses)
system.l2.ReadExReq_accesses::total            348113                       # number of ReadExReq accesses(hits+misses)
system.l2.ReadExReq_miss_rate::.cpu.data     0.945118                       # miss rate for ReadExReq accesses
system.l2.ReadExReq_miss_rate::total         0.945118                       # miss rate for ReadExReq accesses
system.l2.ReadExReq_avg_miss_latency::.cpu.data 175944.951238                       # average ReadExReq miss latency
system.l2.ReadExReq_avg_miss_latency::total 175944.951238                       # average ReadExReq miss latency
system.l2.ReadExReq_mshr_misses::.cpu.data       329008                       # number of ReadExReq MSHR misses
system.l2.ReadExReq_mshr_misses::total         329008                       # number of ReadExReq MSHR misses
system.l2.ReadExReq_mshr_miss_latency::.cpu.data  53352567147                       # number of ReadExReq MSHR miss cycles
system.l2.ReadExReq_mshr_miss_latency::total  53352567147                       # number of ReadExReq MSHR miss cycles
system.l2.ReadExReq_mshr_miss_rate::.cpu.data     0.945118                       # mshr miss rate for ReadExReq accesses
system.l2.ReadExReq_mshr_miss_rate::total     0.945118                       # mshr miss rate for ReadExReq accesses
system.l2.ReadExReq_avg_mshr_miss_latency::.cpu.data 162161.914443                       # average ReadExReq mshr miss latency
system.l2.ReadExReq_avg_mshr_miss_latency::total 162161.914443                       # average ReadExReq mshr miss latency
system.l2.ReadCleanReq_hits::.cpu.inst             88                       # number of ReadCleanReq hits
system.l2.ReadCleanReq_hits::total                 88                       # number of ReadCleanReq hits
system.l2.ReadCleanReq_misses::.cpu.inst          157                       # number of ReadCleanReq misses
system.l2.ReadCleanReq_misses::total              157                       # number of ReadCleanReq misses
system.l2.ReadCleanReq_miss_latency::.cpu.inst     29609464                       # number of ReadCleanReq miss cycles
system.l2.ReadCleanReq_miss_latency::total     29609464                       # number of ReadCleanReq miss cycles
system.l2.ReadCleanReq_accesses::.cpu.inst          245                       # number of ReadCleanReq accesses(hits+misses)
system.l2.ReadCleanReq_accesses::total            245                       # number of ReadCleanReq accesses(hits+misses)
system.l2.ReadCleanReq_miss_rate::.cpu.inst     0.640816                       # miss rate for ReadCleanReq accesses
system.l2.ReadCleanReq_miss_rate::total      0.640816                       # miss rate for ReadCleanReq accesses
system.l2.ReadCleanReq_avg_miss_latency::.cpu.inst 188595.312102                       # average ReadCleanReq miss latency
system.l2.ReadCleanReq_avg_miss_latency::total 188595.312102                       # average ReadCleanReq miss latency
system.l2.ReadCleanReq_mshr_misses::.cpu.inst          157                       # number of ReadCleanReq MSHR misses
system.l2.ReadCleanReq_mshr_misses::total          157                       # number of ReadCleanReq MSHR misses
system.l2.ReadCleanReq_mshr_miss_latency::.cpu.inst     27460155                       # number of ReadCleanReq MSHR miss cycles
system.l2.ReadCleanReq_mshr_miss_latency::total     27460155                       # number of ReadCleanReq MSHR miss cycles
system.l2.ReadCleanReq_mshr_miss_rate::.cpu.inst     0.640816                       # mshr miss rate for ReadCleanReq accesses
system.l2.ReadCleanReq_mshr_miss_rate::total     0.640816                       # mshr miss rate for ReadCleanReq accesses
system.l2.ReadCleanReq_avg_mshr_miss_latency::.cpu.inst 174905.445860                       # average ReadCleanReq mshr miss latency
system.l2.ReadCleanReq_avg_mshr_miss_latency::total 174905.445860                       # average ReadCleanReq mshr miss latency
system.l2.ReadSharedReq_hits::.cpu.data         19464                       # number of ReadSharedReq hits
system.l2.ReadSharedReq_hits::total             19464                       # number of ReadSharedReq hits
system.l2.ReadSharedReq_misses::.cpu.data           91                       # number of ReadSharedReq misses
system.l2.ReadSharedReq_misses::total              91                       # number of ReadSharedReq misses
system.l2.ReadSharedReq_miss_latency::.cpu.data     18666662                       # number of ReadSharedReq miss cycles
system.l2.ReadSharedReq_miss_latency::total     18666662                       # number of ReadSharedReq miss cycles
system.l2.ReadSharedReq_accesses::.cpu.data        19555                       # number of ReadSharedReq accesses(hits+misses)
system.l2.ReadSharedReq_accesses::total         19555                       # number of ReadSharedReq accesses(hits+misses)
system.l2.ReadSharedReq_miss_rate::.cpu.data     0.004654                       # miss rate for ReadSharedReq accesses
system.l2.ReadSharedReq_miss_rate::total     0.004654                       # miss rate for ReadSharedReq accesses
system.l2.ReadSharedReq_avg_miss_latency::.cpu.data 205128.153846                       # average ReadSharedReq miss latency
system.l2.ReadSharedReq_avg_miss_latency::total 205128.153846                       # average ReadSharedReq miss latency
system.l2.ReadSharedReq_mshr_hits::.cpu.data            2                       # number of ReadSharedReq MSHR hits
system.l2.ReadSharedReq_mshr_hits::total            2                       # number of ReadSharedReq MSHR hits
system.l2.ReadSharedReq_mshr_misses::.cpu.data           89                       # number of ReadSharedReq MSHR misses
system.l2.ReadSharedReq_mshr_misses::total           89                       # number of ReadSharedReq MSHR misses
system.l2.ReadSharedReq_mshr_miss_latency::.cpu.data     17119372                       # number of ReadSharedReq MSHR miss cycles
system.l2.ReadSharedReq_mshr_miss_latency::total     17119372                       # number of ReadSharedReq MSHR miss cycles
system.l2.ReadSharedReq_mshr_miss_rate::.cpu.data     0.004551                       # mshr miss rate for ReadSharedReq accesses
system.l2.ReadSharedReq_mshr_miss_rate::total     0.004551                       # mshr miss rate for ReadSharedReq accesses
system.l2.ReadSharedReq_avg_mshr_miss_latency::.cpu.data 192352.494382                       # average ReadSharedReq mshr miss latency
system.l2.ReadSharedReq_avg_mshr_miss_latency::total 192352.494382                       # average ReadSharedReq mshr miss latency
system.l2.power_state.pwrStateResidencyTicks::UNDEFINED 201503300633                       # Cumulative time (in ticks) in various power states
system.l2.tags.tagsinuse                   506.584526                       # Cycle average of tags in use
system.l2.tags.total_refs                      731986                       # Total number of references to valid blocks.
system.l2.tags.sampled_refs                    329288                       # Sample count of references to valid blocks.
system.l2.tags.avg_refs                      2.222936                       # Average number of references to valid blocks.
system.l2.tags.warmup_cycle                    155000                       # Cycle when the warmup percentage was hit.
system.l2.tags.occ_blocks::.writebacks       0.064293                       # Average occupied blocks per requestor
system.l2.tags.occ_blocks::.cpu.inst         2.325343                       # Average occupied blocks per requestor
system.l2.tags.occ_blocks::.cpu.data       504.194890                       # Average occupied blocks per requestor
system.l2.tags.occ_percent::.writebacks      0.000126                       # Average percentage of cache occupancy
system.l2.tags.occ_percent::.cpu.inst        0.004542                       # Average percentage of cache occupancy
system.l2.tags.occ_percent::.cpu.data        0.984756                       # Average percentage of cache occupancy
system.l2.tags.occ_percent::total            0.989423                       # Average percentage of cache occupancy
system.l2.tags.occ_task_id_blocks::1024           512                       # Occupied blocks per task id
system.l2.tags.age_task_id_blocks_1024::0           17                       # Occupied blocks per task id
system.l2.tags.age_task_id_blocks_1024::1          150                       # Occupied blocks per task id
system.l2.tags.age_task_id_blocks_1024::2          345                       # Occupied blocks per task id
system.l2.tags.occ_task_id_percent::1024            1                       # Percentage of cache occupancy per task id
system.l2.tags.tag_accesses                   1793266                       # Number of tag accesses
system.l2.tags.data_accesses                  1793266                       # Number of data accesses
system.l2.tags.power_state.pwrStateResidencyTicks::UNDEFINED 201503300633                       # Cumulative time (in ticks) in various power states
system.mem_ctrls.avgPriority_.writebacks::samples   5256128.00                       # Average QoS priority value for accepted requests
system.mem_ctrls.avgPriority_.cpu.inst::samples      2512.00                       # Average QoS priority value for accepted requests
system.mem_ctrls.avgPriority_.cpu.data::samples   5265536.00                       # Average QoS priority value for accepted requests
system.mem_ctrls.priorityMinLatency      0.000000018750                       # per QoS priority minimum request to response latency (s)
system.mem_ctrls.priorityMaxLatency      0.000434936712                       # per QoS priority maximum request to response latency (s)
system.mem_ctrls.numReadWriteTurnArounds       164282                       # Number of turnarounds from READ to WRITE
system.mem_ctrls.numWriteReadTurnArounds       164282                       # Number of turnarounds from WRITE to READ
system.mem_ctrls.numStayReadState             5973946                       # Number of times bus staying in READ state
system.mem_ctrls.numStayWriteState            5091889                       # Number of times bus staying in WRITE state
system.mem_ctrls.readReqs                      329254                       # Number of read requests accepted
system.mem_ctrls.writeReqs                     328508                       # Number of write requests accepted
system.mem_ctrls.readBursts                   5268064                       # Number of controller read bursts, including those serviced by the write queue
system.mem_ctrls.writeBursts                  5256128                       # Number of controller write bursts, including those merged in the write queue
system.mem_ctrls.servicedByWrQ                     16                       # Number of controller read bursts serviced by the write queue
system.mem_ctrls.mergedWrBursts                     0                       # Number of controller write bursts merged with an existing one
system.mem_ctrls.neitherReadNorWriteReqs            0                       # Number of requests that are neither read nor write
system.mem_ctrls.avgRdQLen                      16.02                       # Average read queue length when enqueuing
system.mem_ctrls.avgWrQLen                      38.20                       # Average write queue length when enqueuing
system.mem_ctrls.numRdRetry                        25                       # Number of times read queue was full causing retry
system.mem_ctrls.numWrRetry                        95                       # Number of times write queue was full causing retry
system.mem_ctrls.readPktSize::0                     0                       # Read request sizes (log2)
system.mem_ctrls.readPktSize::1                     0                       # Read request sizes (log2)
system.mem_ctrls.readPktSize::2                     0                       # Read request sizes (log2)
system.mem_ctrls.readPktSize::3                     0                       # Read request sizes (log2)
system.mem_ctrls.readPktSize::4                     0                       # Read request sizes (log2)
system.mem_ctrls.readPktSize::5                     0                       # Read request sizes (log2)
system.mem_ctrls.readPktSize::6               5268064                       # Read request sizes (log2)
system.mem_ctrls.readPktSize::7                     0                       # Read request sizes (log2)
[...]
system.mem_ctrls.dram.bw_write::.writebacks   1669412813                       # Write bandwidth from this memory (bytes/s)
system.mem_ctrls.dram.bw_write::total      1669412813                       # Write bandwidth from this memory (bytes/s)
system.mem_ctrls.dram.bw_total::.writebacks   1669412813                       # Total bandwidth to/from this memory (bytes/s)
system.mem_ctrls.dram.bw_total::.cpu.inst       797843                       # Total bandwidth to/from this memory (bytes/s)
system.mem_ctrls.dram.bw_total::.cpu.data   1672405995                       # Total bandwidth to/from this memory (bytes/s)
system.mem_ctrls.dram.bw_total::total      3342616651                       # Total bandwidth to/from this memory (bytes/s)
system.mem_ctrls.dram.readBursts              5268048                       # Number of DRAM read bursts
system.mem_ctrls.dram.writeBursts             5256097                       # Number of DRAM write bursts
system.mem_ctrls.dram.perBankRdBursts::0       329120                       # Per bank write bursts
system.mem_ctrls.dram.perBankRdBursts::1       329424                       # Per bank write bursts
system.mem_ctrls.dram.perBankRdBursts::2       329488                       # Per bank write bursts
system.mem_ctrls.dram.perBankRdBursts::3       329312                       # Per bank write bursts
system.mem_ctrls.dram.perBankRdBursts::4       329232                       # Per bank write bursts
system.mem_ctrls.dram.perBankRdBursts::5       329248                       # Per bank write bursts
system.mem_ctrls.dram.perBankRdBursts::6       329296                       # Per bank write bursts
system.mem_ctrls.dram.perBankRdBursts::7       329264                       # Per bank write bursts
system.mem_ctrls.dram.perBankRdBursts::8       328992                       # Per bank write bursts
system.mem_ctrls.dram.perBankRdBursts::9       329104                       # Per bank write bursts
system.mem_ctrls.dram.perBankRdBursts::10       329104                       # Per bank write bursts
system.mem_ctrls.dram.perBankRdBursts::11       329136                       # Per bank write bursts
system.mem_ctrls.dram.perBankRdBursts::12       329344                       # Per bank write bursts
system.mem_ctrls.dram.perBankRdBursts::13       329376                       # Per bank write bursts
system.mem_ctrls.dram.perBankRdBursts::14       329456                       # Per bank write bursts
system.mem_ctrls.dram.perBankRdBursts::15       329152                       # Per bank write bursts
system.mem_ctrls.dram.perBankWrBursts::0       328400                       # Per bank write bursts
system.mem_ctrls.dram.perBankWrBursts::1       328592                       # Per bank write bursts
system.mem_ctrls.dram.perBankWrBursts::2       328673                       # Per bank write bursts
system.mem_ctrls.dram.perBankWrBursts::3       328704                       # Per bank write bursts
system.mem_ctrls.dram.perBankWrBursts::4       328544                       # Per bank write bursts
system.mem_ctrls.dram.perBankWrBursts::5       328592                       # Per bank write bursts
system.mem_ctrls.dram.perBankWrBursts::6       328592                       # Per bank write bursts
system.mem_ctrls.dram.perBankWrBursts::7       328608                       # Per bank write bursts
system.mem_ctrls.dram.perBankWrBursts::8       328336                       # Per bank write bursts
system.mem_ctrls.dram.perBankWrBursts::9       328320                       # Per bank write bursts
system.mem_ctrls.dram.perBankWrBursts::10       328320                       # Per bank write bursts
system.mem_ctrls.dram.perBankWrBursts::11       328416                       # Per bank write bursts
system.mem_ctrls.dram.perBankWrBursts::12       328496                       # Per bank write bursts
system.mem_ctrls.dram.perBankWrBursts::13       328528                       # Per bank write bursts
system.mem_ctrls.dram.perBankWrBursts::14       328480                       # Per bank write bursts
system.mem_ctrls.dram.perBankWrBursts::15       328496                       # Per bank write bursts
system.mem_ctrls.dram.totQLat            320087034880                       # Total ticks spent queuing
system.mem_ctrls.dram.totBusLat           26340240000                       # Total ticks spent in databus transfers
system.mem_ctrls.dram.totMemAccLat       418862934880                       # Total ticks spent from burst creation until serviced by the DRAM
system.mem_ctrls.dram.avgQLat                60760.08                       # Average queueing delay per DRAM burst
system.mem_ctrls.dram.avgBusLat               5000.00                       # Average bus latency per DRAM burst
system.mem_ctrls.dram.avgMemAccLat           79510.08                       # Average memory access latency per DRAM burst
system.mem_ctrls.dram.readRowHits             4938789                       # Number of row buffer hits during reads
system.mem_ctrls.dram.writeRowHits            4886392                       # Number of row buffer hits during writes
system.mem_ctrls.dram.readRowHitRate            93.75                       # Row buffer hit rate for reads
system.mem_ctrls.dram.writeRowHitRate           92.97                       # Row buffer hit rate for writes
system.mem_ctrls.dram.bytesPerActivate::samples       698963                       # Bytes accessed per row activation
system.mem_ctrls.dram.bytesPerActivate::mean   963.633726                       # Bytes accessed per row activation
system.mem_ctrls.dram.bytesPerActivate::gmean   866.335154                       # Bytes accessed per row activation
system.mem_ctrls.dram.bytesPerActivate::stdev   225.643688                       # Bytes accessed per row activation
system.mem_ctrls.dram.bytesPerActivate::0-127        41171      5.89%      5.89% # Bytes accessed per row activation
system.mem_ctrls.dram.bytesPerActivate::128-255           12      0.00%      5.89% # Bytes accessed per row activation
system.mem_ctrls.dram.bytesPerActivate::256-383           13      0.00%      5.89% # Bytes accessed per row activation
system.mem_ctrls.dram.bytesPerActivate::384-511            7      0.00%      5.89% # Bytes accessed per row activation
system.mem_ctrls.dram.bytesPerActivate::512-639            9      0.00%      5.90% # Bytes accessed per row activation
system.mem_ctrls.dram.bytesPerActivate::640-767           11      0.00%      5.90% # Bytes accessed per row activation
system.mem_ctrls.dram.bytesPerActivate::768-895           11      0.00%      5.90% # Bytes accessed per row activation
system.mem_ctrls.dram.bytesPerActivate::896-1023        41160      5.89%     11.79% # Bytes accessed per row activation
system.mem_ctrls.dram.bytesPerActivate::1024-1151       616569     88.21%    100.00% # Bytes accessed per row activation
system.mem_ctrls.dram.bytesPerActivate::total       698963                       # Bytes accessed per row activation
system.mem_ctrls.dram.bytesRead             337155072                       # Total number of bytes read from DRAM
system.mem_ctrls.dram.bytesWritten          336390208                       # Total number of bytes written to DRAM
system.mem_ctrls.dram.avgRdBW             1673.198756                       # Average DRAM read bandwidth in MiBytes/s
system.mem_ctrls.dram.avgWrBW             1669.402967                       # Average DRAM write bandwidth in MiBytes/s
system.mem_ctrls.dram.peakBW                 12800.00                       # Theoretical peak bandwidth in MiByte/s
system.mem_ctrls.dram.busUtil                   26.11                       # Data bus utilization in percentage
system.mem_ctrls.dram.busUtilRead               13.07                       # Data bus utilization in percentage for reads
system.mem_ctrls.dram.busUtilWrite              13.04                       # Data bus utilization in percentage for writes
system.mem_ctrls.dram.pageHitRate               93.36                       # Row buffer hit rate, read and write combined
system.mem_ctrls.dram.power_state.pwrStateResidencyTicks::UNDEFINED 201503300633                       # Cumulative time (in ticks) in various power states
system.mem_ctrls.dram.rank0.actEnergy      2495979780                       # Energy for activate commands per rank (pJ)
system.mem_ctrls.dram.rank0.preEnergy      1326640920                       # Energy for precharge commands per rank (pJ)
system.mem_ctrls.dram.rank0.readEnergy    18809501760                       # Energy for read commands per rank (pJ)
system.mem_ctrls.dram.rank0.writeEnergy   13721840100                       # Energy for write commands per rank (pJ)
system.mem_ctrls.dram.rank0.refreshEnergy 15906268560.000002                       # Energy for refresh commands per rank (pJ)
system.mem_ctrls.dram.rank0.actBackEnergy  40428539340                       # Energy for active background per rank (pJ)
system.mem_ctrls.dram.rank0.preBackEnergy  43332181920                       # Energy for precharge background per rank (pJ)
system.mem_ctrls.dram.rank0.actPowerDownEnergy            0                       # Energy for active power-down per rank (pJ)
system.mem_ctrls.dram.rank0.prePowerDownEnergy            0                       # Energy for precharge power-down per rank (pJ)
system.mem_ctrls.dram.rank0.selfRefreshEnergy            0                       # Energy for self refresh per rank (pJ)
system.mem_ctrls.dram.rank0.totalEnergy  136020952380                       # Total energy per rank (pJ)
system.mem_ctrls.dram.rank0.averagePower   675.030890                       # Core power per rank (mW)
system.mem_ctrls.dram.rank0.totalIdleTime            0                       # Total Idle time Per DRAM Rank
system.mem_ctrls.dram.rank0.pwrStateTime::IDLE 110593262674                       # Time in different power states
system.mem_ctrls.dram.rank0.pwrStateTime::REF   6728540000                       # Time in different power states
system.mem_ctrls.dram.rank0.pwrStateTime::SREF            0                       # Time in different power states
system.mem_ctrls.dram.rank0.pwrStateTime::PRE_PDN            0                       # Time in different power states
system.mem_ctrls.dram.rank0.pwrStateTime::ACT  84181497959                       # Time in different power states
system.mem_ctrls.dram.rank0.pwrStateTime::ACT_PDN            0                       # Time in different power states
system.mem_ctrls.dram.rank1.actEnergy      2494623180                       # Energy for activate commands per rank (pJ)
system.mem_ctrls.dram.rank1.preEnergy      1325923665                       # Energy for precharge commands per rank (pJ)
system.mem_ctrls.dram.rank1.readEnergy    18804360960                       # Energy for read commands per rank (pJ)
system.mem_ctrls.dram.rank1.writeEnergy   13714986240                       # Energy for write commands per rank (pJ)
system.mem_ctrls.dram.rank1.refreshEnergy 15906268560.000002                       # Energy for refresh commands per rank (pJ)
system.mem_ctrls.dram.rank1.actBackEnergy  40406736270                       # Energy for active background per rank (pJ)
system.mem_ctrls.dram.rank1.preBackEnergy  43350542400                       # Energy for precharge background per rank (pJ)
system.mem_ctrls.dram.rank1.actPowerDownEnergy            0                       # Energy for active power-down per rank (pJ)
system.mem_ctrls.dram.rank1.prePowerDownEnergy            0                       # Energy for precharge power-down per rank (pJ)
system.mem_ctrls.dram.rank1.selfRefreshEnergy            0                       # Energy for self refresh per rank (pJ)
system.mem_ctrls.dram.rank1.totalEnergy  136003441275                       # Total energy per rank (pJ)
system.mem_ctrls.dram.rank1.averagePower   674.943988                       # Core power per rank (mW)
system.mem_ctrls.dram.rank1.totalIdleTime            0                       # Total Idle time Per DRAM Rank
system.mem_ctrls.dram.rank1.pwrStateTime::IDLE 110642684014                       # Time in different power states
system.mem_ctrls.dram.rank1.pwrStateTime::REF   6728540000                       # Time in different power states
system.mem_ctrls.dram.rank1.pwrStateTime::SREF            0                       # Time in different power states
system.mem_ctrls.dram.rank1.pwrStateTime::PRE_PDN            0                       # Time in different power states
system.mem_ctrls.dram.rank1.pwrStateTime::ACT  84132076619                       # Time in different power states
system.mem_ctrls.dram.rank1.pwrStateTime::ACT_PDN            0                       # Time in different power states
system.mem_ctrls.power_state.pwrStateResidencyTicks::UNDEFINED 201503300633                       # Cumulative time (in ticks) in various power states
system.membus.trans_dist::ReadResp                246                       # Transaction distribution
system.membus.trans_dist::WritebackDirty       328508                       # Transaction distribution
system.membus.trans_dist::CleanEvict              161                       # Transaction distribution
system.membus.trans_dist::ReadExReq            329008                       # Transaction distribution
system.membus.trans_dist::ReadExResp           329008                       # Transaction distribution
system.membus.trans_dist::ReadSharedReq           246                       # Transaction distribution
system.membus.pkt_count_system.l2.mem_side_port::system.mem_ctrls.port       987177                       # Packet count per connected requestor and responder (bytes)
system.membus.pkt_count::total                 987177                       # Packet count per connected requestor and responder (bytes)
system.membus.pkt_size_system.l2.mem_side_port::system.mem_ctrls.port    673548288                       # Cumulative packet size per connected requestor and responder (bytes)
system.membus.pkt_size::total               673548288                       # Cumulative packet size per connected requestor and responder (bytes)
system.membus.snoops                                0                       # Total snoops (count)
system.membus.snoopTraffic                          0                       # Total snoop traffic (bytes)
system.membus.snoop_fanout::samples            329279                       # Request fanout histogram
system.membus.snoop_fanout::mean                    0                       # Request fanout histogram
system.membus.snoop_fanout::stdev                   0                       # Request fanout histogram
system.membus.snoop_fanout::underflows              0      0.00%      0.00% # Request fanout histogram
system.membus.snoop_fanout::0                  329279    100.00%    100.00% # Request fanout histogram
system.membus.snoop_fanout::1                       0      0.00%    100.00% # Request fanout histogram
system.membus.snoop_fanout::overflows               0      0.00%    100.00% # Request fanout histogram
system.membus.snoop_fanout::min_value               0                       # Request fanout histogram
system.membus.snoop_fanout::max_value               0                       # Request fanout histogram
system.membus.snoop_fanout::total              329279                       # Request fanout histogram
system.membus.power_state.pwrStateResidencyTicks::UNDEFINED 201503300633                       # Cumulative time (in ticks) in various power states
system.membus.reqLayer0.occupancy         21961271814                       # Layer occupancy (ticks)
system.membus.reqLayer0.utilization              10.9                       # Layer utilization (%)
system.membus.respLayer1.occupancy        21574703945                       # Layer occupancy (ticks)
system.membus.respLayer1.utilization             10.7                       # Layer utilization (%)
system.tol2bus.trans_dist::ReadResp             19800                       # Transaction distribution
system.tol2bus.trans_dist::WritebackDirty       684210                       # Transaction distribution
system.tol2bus.trans_dist::WritebackClean          182                       # Transaction distribution
system.tol2bus.trans_dist::CleanEvict           12202                       # Transaction distribution
system.tol2bus.trans_dist::ReadExReq           348113                       # Transaction distribution
system.tol2bus.trans_dist::ReadExResp          348113                       # Transaction distribution
system.tol2bus.trans_dist::ReadCleanReq           245                       # Transaction distribution
system.tol2bus.trans_dist::ReadSharedReq        19555                       # Transaction distribution
system.tol2bus.pkt_count_system.cpu.icache.mem_side_port::system.l2.cpu_side_port          672                       # Packet count per connected requestor and responder (bytes)
system.tol2bus.pkt_count_system.cpu.dcache.mem_side_port::system.l2.cpu_side_port      1102972                       # Packet count per connected requestor and responder (bytes)
system.tol2bus.pkt_count::total               1103644                       # Packet count per connected requestor and responder (bytes)
system.tol2bus.pkt_size_system.cpu.icache.mem_side_port::system.l2.cpu_side_port       437248                       # Cumulative packet size per connected requestor and responder (bytes)
system.tol2bus.pkt_size_system.cpu.dcache.mem_side_port::system.l2.cpu_side_port    740730880                       # Cumulative packet size per connected requestor and responder (bytes)
system.tol2bus.pkt_size::total              741168128                       # Cumulative packet size per connected requestor and responder (bytes)
system.tol2bus.snoops                          328776                       # Total snoops (count)
system.tol2bus.snoopTraffic                 336392192                       # Total snoop traffic (bytes)
system.tol2bus.snoop_fanout::samples           696689                       # Request fanout histogram
system.tol2bus.snoop_fanout::mean            0.005526                       # Request fanout histogram
system.tol2bus.snoop_fanout::stdev           0.074132                       # Request fanout histogram
system.tol2bus.snoop_fanout::underflows             0      0.00%      0.00% # Request fanout histogram
system.tol2bus.snoop_fanout::0                 692839     99.45%     99.45% # Request fanout histogram
system.tol2bus.snoop_fanout::1                   3850      0.55%    100.00% # Request fanout histogram
system.tol2bus.snoop_fanout::2                      0      0.00%    100.00% # Request fanout histogram
system.tol2bus.snoop_fanout::overflows              0      0.00%    100.00% # Request fanout histogram
system.tol2bus.snoop_fanout::min_value              0                       # Request fanout histogram
system.tol2bus.snoop_fanout::max_value              1                       # Request fanout histogram
system.tol2bus.snoop_fanout::total             696689                       # Request fanout histogram
system.tol2bus.power_state.pwrStateResidencyTicks::UNDEFINED 201503300633                       # Cumulative time (in ticks) in various power states
system.tol2bus.reqLayer0.occupancy         8086720673                       # Layer occupancy (ticks)
system.tol2bus.reqLayer0.utilization              4.0                       # Layer utilization (%)
system.tol2bus.respLayer0.occupancy           5392695                       # Layer occupancy (ticks)
system.tol2bus.respLayer0.utilization             0.0                       # Layer utilization (%)
system.tol2bus.respLayer1.occupancy        8092741680                       # Layer occupancy (ticks)
system.tol2bus.respLayer1.utilization             4.0                       # Layer utilization (%)
system.voltage_domain.voltage                       1                       # Voltage in Volts

---------- End Simulation Statistics   ----------
