
---------- Begin Simulation Statistics ----------
final_tick                               174763479500                       # Number of ticks from beginning of simulation (restored from checkpoints and never reset)
host_inst_rate                                 243791                       # Simulator instruction rate (inst/s)
host_mem_usage                                 681276                       # Number of bytes of host memory used
host_op_rate                                   243800                       # Simulator op (including micro ops) rate (op/s)
host_seconds                                   410.19                       # Real time elapsed on the host
host_tick_rate                              426058235                       # Simulator tick rate (ticks/s)
sim_freq                                 1000000000000                       # Frequency of simulated ticks
sim_insts                                   100000000                       # Number of instructions simulated
sim_ops                                     100003630                       # Number of ops (including micro ops) simulated
sim_seconds                                  0.174763                       # Number of seconds simulated
sim_ticks                                174763479500                       # Number of ticks simulated
system.cpu.committedInsts                   100000000                       # Number of instructions committed
system.cpu.committedOps                     100003630                       # Number of ops (including micro ops) committed
system.cpu.cpi                               3.495270                       # CPI: cycles per instruction
system.cpu.discardedOps                         21206                       # Number of ops (including micro ops) which were discarded before commit
system.cpu.idleCycles                       232174789                       # Total number of cycles that the object has spent stopped
system.cpu.ipc                               0.286101                       # IPC: instructions per cycle
system.cpu.numCycles                        349526959                       # number of cpu cycles simulated
system.cpu.numFetchSuspends                         0                       # Number of times Execute suspended instruction fetching
system.cpu.numWorkItemsCompleted                    0                       # number of work items this cpu completed
system.cpu.numWorkItemsStarted                      0                       # number of work items this cpu started
system.cpu.op_class_0::No_OpClass                   0      0.00%      0.00% # Class of committed instruction
system.cpu.op_class_0::IntAlu                49995352     49.99%     49.99% # Class of committed instruction
system.cpu.op_class_0::IntMult                     88      0.00%     49.99% # Class of committed instruction
system.cpu.op_class_0::IntDiv                       0      0.00%     49.99% # Class of committed instruction
system.cpu.op_class_0::FloatAdd                     0      0.00%     49.99% # Class of committed instruction
system.cpu.op_class_0::FloatCmp                     0      0.00%     49.99% # Class of committed instruction
system.cpu.op_class_0::FloatCvt                     0      0.00%     49.99% # Class of committed instruction
system.cpu.op_class_0::FloatMult                    0      0.00%     49.99% # Class of committed instruction
system.cpu.op_class_0::FloatMultAcc                 0      0.00%     49.99% # Class of committed instruction
system.cpu.op_class_0::FloatDiv                     0      0.00%     49.99% # Class of committed instruction
system.cpu.op_class_0::FloatMisc                    0      0.00%     49.99% # Class of committed instruction
system.cpu.op_class_0::FloatSqrt                    0      0.00%     49.99% # Class of committed instruction
system.cpu.op_class_0::SimdAdd                      0      0.00%     49.99% # Class of committed instruction
system.cpu.op_class_0::SimdAddAcc                   0      0.00%     49.99% # Class of committed instruction
system.cpu.op_class_0::SimdAlu                      0      0.00%     49.99% # Class of committed instruction
system.cpu.op_class_0::SimdCmp                      0      0.00%     49.99% # Class of committed instruction
system.cpu.op_class_0::SimdCvt                      0      0.00%     49.99% # Class of committed instruction
system.cpu.op_class_0::SimdMisc                     0      0.00%     49.99% # Class of committed instruction
system.cpu.op_class_0::SimdMult                     0      0.00%     49.99% # Class of committed instruction
system.cpu.op_class_0::SimdMultAcc                  0      0.00%     49.99% # Class of committed instruction
system.cpu.op_class_0::SimdShift                    0      0.00%     49.99% # Class of committed instruction
system.cpu.op_class_0::SimdShiftAcc                 0      0.00%     49.99% # Class of committed instruction
system.cpu.op_class_0::SimdDiv                      0      0.00%     49.99% # Class of committed instruction
system.cpu.op_class_0::SimdSqrt                     0      0.00%     49.99% # Class of committed instruction
system.cpu.op_class_0::SimdFloatAdd                 0      0.00%     49.99% # Class of committed instruction
system.cpu.op_class_0::SimdFloatAlu                 0      0.00%     49.99% # Class of committed instruction
system.cpu.op_class_0::SimdFloatCmp                 2      0.00%     49.99% # Class of committed instruction
system.cpu.op_class_0::SimdFloatCvt                 0      0.00%     49.99% # Class of committed instruction
system.cpu.op_class_0::SimdFloatDiv                 0      0.00%     49.99% # Class of committed instruction
system.cpu.op_class_0::SimdFloatMisc               22      0.00%     49.99% # Class of committed instruction
system.cpu.op_class_0::SimdFloatMult                0      0.00%     49.99% # Class of committed instruction
system.cpu.op_class_0::SimdFloatMultAcc             0      0.00%     49.99% # Class of committed instruction
system.cpu.op_class_0::SimdFloatSqrt                0      0.00%     49.99% # Class of committed instruction
system.cpu.op_class_0::SimdReduceAdd                0      0.00%     49.99% # Class of committed instruction
system.cpu.op_class_0::SimdReduceAlu                0      0.00%     49.99% # Class of committed instruction
system.cpu.op_class_0::SimdReduceCmp                0      0.00%     49.99% # Class of committed instruction
system.cpu.op_class_0::SimdFloatReduceAdd            0      0.00%     49.99% # Class of committed instruction
system.cpu.op_class_0::SimdFloatReduceCmp            0      0.00%     49.99% # Class of committed instruction
system.cpu.op_class_0::SimdAes                      0      0.00%     49.99% # Class of committed instruction
system.cpu.op_class_0::SimdAesMix                   0      0.00%     49.99% # Class of committed instruction
system.cpu.op_class_0::SimdSha1Hash                 0      0.00%     49.99% # Class of committed instruction
system.cpu.op_class_0::SimdSha1Hash2                0      0.00%     49.99% # Class of committed instruction
system.cpu.op_class_0::SimdSha256Hash               0      0.00%     49.99% # Class of committed instruction
system.cpu.op_class_0::SimdSha256Hash2              0      0.00%     49.99% # Class of committed instruction
system.cpu.op_class_0::SimdShaSigma2                0      0.00%     49.99% # Class of committed instruction
system.cpu.op_class_0::SimdShaSigma3                0      0.00%     49.99% # Class of committed instruction
system.cpu.op_class_0::SimdPredAlu                  0      0.00%     49.99% # Class of committed instruction
system.cpu.op_class_0::MemRead               36892283     36.89%     86.88% # Class of committed instruction
system.cpu.op_class_0::MemWrite              13115883     13.12%    100.00% # Class of committed instruction
system.cpu.op_class_0::FloatMemRead                 0      0.00%    100.00% # Class of committed instruction
system.cpu.op_class_0::FloatMemWrite                0      0.00%    100.00% # Class of committed instruction
system.cpu.op_class_0::IprAccess                    0      0.00%    100.00% # Class of committed instruction
system.cpu.op_class_0::InstPrefetch                 0      0.00%    100.00% # Class of committed instruction
system.cpu.op_class_0::total                100003630                       # Class of committed instruction
system.cpu.tickCycles                       117352170                       # Number of cycles that the object actually ticked
system.cpu.workload.numSyscalls                    19                       # Number of system calls
system.membus.snoop_filter.hit_multi_requests            0                       # Number of requests hitting in the snoop filter with multiple (>1) holders of the requested data.
system.membus.snoop_filter.hit_multi_snoops            0                       # Number of snoops hitting in the snoop filter with multiple (>1) holders of the requested data.
system.membus.snoop_filter.hit_single_requests      1454997                       # Number of requests hitting in the snoop filter with a single holder of the requested data.
system.membus.snoop_filter.hit_single_snoops            0                       # Number of snoops hitting in the snoop filter with a single holder of the requested data.
system.membus.snoop_filter.tot_requests       2943107                       # Total number of requests made to the snoop filter.
system.membus.snoop_filter.tot_snoops               0                       # Total number of snoops made to the snoop filter.
system.tol2bus.snoop_filter.hit_multi_requests           28                       # Number of requests hitting in the snoop filter with multiple (>1) holders of the requested data.
system.tol2bus.snoop_filter.hit_multi_snoops            1                       # Number of snoops hitting in the snoop filter with multiple (>1) holders of the requested data.
system.tol2bus.snoop_filter.hit_single_requests      1486830                       # Number of requests hitting in the snoop filter with a single holder of the requested data.
system.tol2bus.snoop_filter.hit_single_snoops          344                       # Number of snoops hitting in the snoop filter with a single holder of the requested data.
system.tol2bus.snoop_filter.tot_requests      2975026                       # Total number of requests made to the snoop filter.
system.tol2bus.snoop_filter.tot_snoops            345                       # Total number of snoops made to the snoop filter.
system.clk_domain.clock                          1000                       # Clock period in ticks
system.cpu.branchPred.lookups                  606463                       # Number of BP lookups
system.cpu.branchPred.condPredicted            604404                       # Number of conditional branches predicted
system.cpu.branchPred.condIncorrect               824                       # Number of conditional branches incorrect
system.cpu.branchPred.BTBLookups               602486                       # Number of BTB lookups
system.cpu.branchPred.BTBHits                  601455                       # Number of BTB hits
system.cpu.branchPred.BTBHitPct             99.828876                       # BTB Hit Percentage
system.cpu.branchPred.RASUsed                     554                       # Number of times the RAS was used to get a target.
system.cpu.branchPred.RASIncorrect                  2                       # Number of incorrect RAS predictions.
system.cpu.branchPred.indirectLookups             372                       # Number of indirect predictor lookups.
system.cpu.branchPred.indirectHits                174                       # Number of indirect target hits.
system.cpu.branchPred.indirectMisses              198                       # Number of indirect misses.
system.cpu.branchPred.indirectMispredicted          102                       # Number of mispredicted indirect branches.
system.cpu.dcache.demand_hits::.cpu.data     45820107                       # number of demand (read+write) hits
system.cpu.dcache.demand_hits::total         45820107                       # number of demand (read+write) hits
system.cpu.dcache.overall_hits::.cpu.data     45820142                       # number of overall hits
system.cpu.dcache.overall_hits::total        45820142                       # number of overall hits
system.cpu.dcache.demand_misses::.cpu.data      2975103                       # number of demand (read+write) misses
system.cpu.dcache.demand_misses::total        2975103                       # number of demand (read+write) misses
system.cpu.dcache.overall_misses::.cpu.data      2975120                       # number of overall misses
system.cpu.dcache.overall_misses::total       2975120                       # number of overall misses
system.cpu.dcache.demand_miss_latency::.cpu.data 237245500500                       # number of demand (read+write) miss cycles
system.cpu.dcache.demand_miss_latency::total 237245500500                       # number of demand (read+write) miss cycles
system.cpu.dcache.overall_miss_latency::.cpu.data 237245500500                       # number of overall miss cycles
system.cpu.dcache.overall_miss_latency::total 237245500500                       # number of overall miss cycles
system.cpu.dcache.demand_accesses::.cpu.data     48795210                       # number of demand (read+write) accesses
system.cpu.dcache.demand_accesses::total     48795210                       # number of demand (read+write) accesses
system.cpu.dcache.overall_accesses::.cpu.data     48795262                       # number of overall (read+write) accesses
system.cpu.dcache.overall_accesses::total     48795262                       # number of overall (read+write) accesses
system.cpu.dcache.demand_miss_rate::.cpu.data     0.060971                       # miss rate for demand accesses
system.cpu.dcache.demand_miss_rate::total     0.060971                       # miss rate for demand accesses
system.cpu.dcache.overall_miss_rate::.cpu.data     0.060971                       # miss rate for overall accesses
system.cpu.dcache.overall_miss_rate::total     0.060971                       # miss rate for overall accesses
system.cpu.dcache.demand_avg_miss_latency::.cpu.data 79743.625851                       # average overall miss latency
system.cpu.dcache.demand_avg_miss_latency::total 79743.625851                       # average overall miss latency
system.cpu.dcache.overall_avg_miss_latency::.cpu.data 79743.170191                       # average overall miss latency
system.cpu.dcache.overall_avg_miss_latency::total 79743.170191                       # average overall miss latency
system.cpu.dcache.blocked_cycles::no_mshrs            0                       # number of cycles access was blocked
system.cpu.dcache.blocked_cycles::no_targets            0                       # number of cycles access was blocked
system.cpu.dcache.blocked::no_mshrs                 0                       # number of cycles access was blocked
system.cpu.dcache.blocked::no_targets               0                       # number of cycles access was blocked
system.cpu.dcache.avg_blocked_cycles::no_mshrs          nan                       # average number of cycles each access was blocked
system.cpu.dcache.avg_blocked_cycles::no_targets          nan                       # average number of cycles each access was blocked
system.cpu.dcache.writebacks::.writebacks      1486497                       # number of writebacks
system.cpu.dcache.writebacks::total           1486497                       # number of writebacks
system.cpu.dcache.demand_mshr_hits::.cpu.data      1487487                       # number of demand (read+write) MSHR hits
system.cpu.dcache.demand_mshr_hits::total      1487487                       # number of demand (read+write) MSHR hits
system.cpu.dcache.overall_mshr_hits::.cpu.data      1487487                       # number of overall MSHR hits
system.cpu.dcache.overall_mshr_hits::total      1487487                       # number of overall MSHR hits
system.cpu.dcache.demand_mshr_misses::.cpu.data      1487616                       # number of demand (read+write) MSHR misses
system.cpu.dcache.demand_mshr_misses::total      1487616                       # number of demand (read+write) MSHR misses
system.cpu.dcache.overall_mshr_misses::.cpu.data      1487630                       # number of overall MSHR misses
system.cpu.dcache.overall_mshr_misses::total      1487630                       # number of overall MSHR misses
system.cpu.dcache.demand_mshr_miss_latency::.cpu.data 121086374500                       # number of demand (read+write) MSHR miss cycles
system.cpu.dcache.demand_mshr_miss_latency::total 121086374500                       # number of demand (read+write) MSHR miss cycles
system.cpu.dcache.overall_mshr_miss_latency::.cpu.data 121087466000                       # number of overall MSHR miss cycles
system.cpu.dcache.overall_mshr_miss_latency::total 121087466000                       # number of overall MSHR miss cycles
system.cpu.dcache.demand_mshr_miss_rate::.cpu.data     0.030487                       # mshr miss rate for demand accesses
system.cpu.dcache.demand_mshr_miss_rate::total     0.030487                       # mshr miss rate for demand accesses
system.cpu.dcache.overall_mshr_miss_rate::.cpu.data     0.030487                       # mshr miss rate for overall accesses
system.cpu.dcache.overall_mshr_miss_rate::total     0.030487                       # mshr miss rate for overall accesses
system.cpu.dcache.demand_avg_mshr_miss_latency::.cpu.data 81396.257166                       # average overall mshr miss latency
system.cpu.dcache.demand_avg_mshr_miss_latency::total 81396.257166                       # average overall mshr miss latency
system.cpu.dcache.overall_avg_mshr_miss_latency::.cpu.data 81396.224868                       # average overall mshr miss latency
system.cpu.dcache.overall_avg_mshr_miss_latency::total 81396.224868                       # average overall mshr miss latency
system.cpu.dcache.replacements                1486606                       # number of replacements
system.cpu.dcache.ReadReq_hits::.cpu.data     35702557                       # number of ReadReq hits
system.cpu.dcache.ReadReq_hits::total        35702557                       # number of ReadReq hits
system.cpu.dcache.ReadReq_misses::.cpu.data          119                       # number of ReadReq misses
system.cpu.dcache.ReadReq_misses::total           119                       # number of ReadReq misses
system.cpu.dcache.ReadReq_miss_latency::.cpu.data      8425000                       # number of ReadReq miss cycles
system.cpu.dcache.ReadReq_miss_latency::total      8425000                       # number of ReadReq miss cycles
system.cpu.dcache.ReadReq_accesses::.cpu.data     35702676                       # number of ReadReq accesses(hits+misses)
system.cpu.dcache.ReadReq_accesses::total     35702676                       # number of ReadReq accesses(hits+misses)
system.cpu.dcache.ReadReq_miss_rate::.cpu.data     0.000003                       # miss rate for ReadReq accesses
system.cpu.dcache.ReadReq_miss_rate::total     0.000003                       # miss rate for ReadReq accesses
system.cpu.dcache.ReadReq_avg_miss_latency::.cpu.data 70798.319328                       # average ReadReq miss latency
system.cpu.dcache.ReadReq_avg_miss_latency::total 70798.319328                       # average ReadReq miss latency
system.cpu.dcache.ReadReq_mshr_hits::.cpu.data            6                       # number of ReadReq MSHR hits
system.cpu.dcache.ReadReq_mshr_hits::total            6                       # number of ReadReq MSHR hits
system.cpu.dcache.ReadReq_mshr_misses::.cpu.data          113                       # number of ReadReq MSHR misses
system.cpu.dcache.ReadReq_mshr_misses::total          113                       # number of ReadReq MSHR misses
system.cpu.dcache.ReadReq_mshr_miss_latency::.cpu.data      7907000                       # number of ReadReq MSHR miss cycles
system.cpu.dcache.ReadReq_mshr_miss_latency::total      7907000                       # number of ReadReq MSHR miss cycles
system.cpu.dcache.ReadReq_mshr_miss_rate::.cpu.data     0.000003                       # mshr miss rate for ReadReq accesses
system.cpu.dcache.ReadReq_mshr_miss_rate::total     0.000003                       # mshr miss rate for ReadReq accesses
system.cpu.dcache.ReadReq_avg_mshr_miss_latency::.cpu.data 69973.451327                       # average ReadReq mshr miss latency
system.cpu.dcache.ReadReq_avg_mshr_miss_latency::total 69973.451327                       # average ReadReq mshr miss latency
system.cpu.dcache.WriteReq_hits::.cpu.data     10117550                       # number of WriteReq hits
system.cpu.dcache.WriteReq_hits::total       10117550                       # number of WriteReq hits
system.cpu.dcache.WriteReq_misses::.cpu.data      2974984                       # number of WriteReq misses
system.cpu.dcache.WriteReq_misses::total      2974984                       # number of WriteReq misses
system.cpu.dcache.WriteReq_miss_latency::.cpu.data 237237075500                       # number of WriteReq miss cycles
system.cpu.dcache.WriteReq_miss_latency::total 237237075500                       # number of WriteReq miss cycles
system.cpu.dcache.WriteReq_accesses::.cpu.data     13092534                       # number of WriteReq accesses(hits+misses)
system.cpu.dcache.WriteReq_accesses::total     13092534                       # number of WriteReq accesses(hits+misses)
system.cpu.dcache.WriteReq_miss_rate::.cpu.data     0.227228                       # miss rate for WriteReq accesses
system.cpu.dcache.WriteReq_miss_rate::total     0.227228                       # miss rate for WriteReq accesses
system.cpu.dcache.WriteReq_avg_miss_latency::.cpu.data 79743.983665                       # average WriteReq miss latency
system.cpu.dcache.WriteReq_avg_miss_latency::total 79743.983665                       # average WriteReq miss latency
system.cpu.dcache.WriteReq_mshr_hits::.cpu.data      1487481                       # number of WriteReq MSHR hits
system.cpu.dcache.WriteReq_mshr_hits::total      1487481                       # number of WriteReq MSHR hits
system.cpu.dcache.WriteReq_mshr_misses::.cpu.data      1487503                       # number of WriteReq MSHR misses
system.cpu.dcache.WriteReq_mshr_misses::total      1487503                       # number of WriteReq MSHR misses
system.cpu.dcache.WriteReq_mshr_miss_latency::.cpu.data 121078467500                       # number of WriteReq MSHR miss cycles
system.cpu.dcache.WriteReq_mshr_miss_latency::total 121078467500                       # number of WriteReq MSHR miss cycles
system.cpu.dcache.WriteReq_mshr_miss_rate::.cpu.data     0.113615                       # mshr miss rate for WriteReq accesses
system.cpu.dcache.WriteReq_mshr_miss_rate::total     0.113615                       # mshr miss rate for WriteReq accesses
system.cpu.dcache.WriteReq_avg_mshr_miss_latency::.cpu.data 81397.124913                       # average WriteReq mshr miss latency
system.cpu.dcache.WriteReq_avg_mshr_miss_latency::total 81397.124913                       # average WriteReq mshr miss latency
system.cpu.dcache.SoftPFReq_hits::.cpu.data           35                       # number of SoftPFReq hits
system.cpu.dcache.SoftPFReq_hits::total            35                       # number of SoftPFReq hits
system.cpu.dcache.SoftPFReq_misses::.cpu.data           17                       # number of SoftPFReq misses
system.cpu.dcache.SoftPFReq_misses::total           17                       # number of SoftPFReq misses
system.cpu.dcache.SoftPFReq_accesses::.cpu.data           52                       # number of SoftPFReq accesses(hits+misses)
system.cpu.dcache.SoftPFReq_accesses::total           52                       # number of SoftPFReq accesses(hits+misses)
system.cpu.dcache.SoftPFReq_miss_rate::.cpu.data     0.326923                       # miss rate for SoftPFReq accesses
system.cpu.dcache.SoftPFReq_miss_rate::total     0.326923                       # miss rate for SoftPFReq accesses
system.cpu.dcache.SoftPFReq_mshr_misses::.cpu.data           14                       # number of SoftPFReq MSHR misses
system.cpu.dcache.SoftPFReq_mshr_misses::total           14                       # number of SoftPFReq MSHR misses
system.cpu.dcache.SoftPFReq_mshr_miss_latency::.cpu.data      1091500                       # number of SoftPFReq MSHR miss cycles
system.cpu.dcache.SoftPFReq_mshr_miss_latency::total      1091500                       # number of SoftPFReq MSHR miss cycles
system.cpu.dcache.SoftPFReq_mshr_miss_rate::.cpu.data     0.269231                       # mshr miss rate for SoftPFReq accesses
system.cpu.dcache.SoftPFReq_mshr_miss_rate::total     0.269231                       # mshr miss rate for SoftPFReq accesses
system.cpu.dcache.SoftPFReq_avg_mshr_miss_latency::.cpu.data 77964.285714                       # average SoftPFReq mshr miss latency
system.cpu.dcache.SoftPFReq_avg_mshr_miss_latency::total 77964.285714                       # average SoftPFReq mshr miss latency
system.cpu.dcache.LoadLockedReq_hits::.cpu.data           14                       # number of LoadLockedReq hits
system.cpu.dcache.LoadLockedReq_hits::total           14                       # number of LoadLockedReq hits
system.cpu.dcache.LoadLockedReq_accesses::.cpu.data           14                       # number of LoadLockedReq accesses(hits+misses)
system.cpu.dcache.LoadLockedReq_accesses::total           14                       # number of LoadLockedReq accesses(hits+misses)
system.cpu.dcache.StoreCondReq_hits::.cpu.data           14                       # number of StoreCondReq hits
system.cpu.dcache.StoreCondReq_hits::total           14                       # number of StoreCondReq hits
system.cpu.dcache.StoreCondReq_accesses::.cpu.data           14                       # number of StoreCondReq accesses(hits+misses)
system.cpu.dcache.StoreCondReq_accesses::total           14                       # number of StoreCondReq accesses(hits+misses)
system.cpu.dcache.power_state.pwrStateResidencyTicks::UNDEFINED 174763479500                       # Cumulative time (in ticks) in various power states
system.cpu.dcache.tags.tagsinuse          1023.443099                       # Cycle average of tags in use
system.cpu.dcache.tags.total_refs            47307800                       # Total number of references to valid blocks.
system.cpu.dcache.tags.sampled_refs           1487630                       # Sample count of references to valid blocks.
system.cpu.dcache.tags.avg_refs             31.800784                       # Average number of references to valid blocks.
system.cpu.dcache.tags.warmup_cycle            176500                       # Cycle when the warmup percentage was hit.
system.cpu.dcache.tags.occ_blocks::.cpu.data  1023.443099                       # Average occupied blocks per requestor
system.cpu.dcache.tags.occ_percent::.cpu.data     0.999456                       # Average percentage of cache occupancy
system.cpu.dcache.tags.occ_percent::total     0.999456                       # Average percentage of cache occupancy
system.cpu.dcache.tags.occ_task_id_blocks::1024         1024                       # Occupied blocks per task id
system.cpu.dcache.tags.age_task_id_blocks_1024::0           84                       # Occupied blocks per task id
system.cpu.dcache.tags.age_task_id_blocks_1024::1          764                       # Occupied blocks per task id
system.cpu.dcache.tags.age_task_id_blocks_1024::2          174                       # Occupied blocks per task id
system.cpu.dcache.tags.age_task_id_blocks_1024::4            2                       # Occupied blocks per task id
system.cpu.dcache.tags.occ_task_id_percent::1024            1                       # Percentage of cache occupancy per task id
system.cpu.dcache.tags.tag_accesses          99078210                       # Number of tag accesses
system.cpu.dcache.tags.data_accesses         99078210                       # Number of data accesses
system.cpu.dcache.tags.power_state.pwrStateResidencyTicks::UNDEFINED 174763479500                       # Cumulative time (in ticks) in various power states
system.cpu.dtb.instHits                             0                       # ITB inst hits
system.cpu.dtb.instMisses                           0                       # ITB inst misses
system.cpu.dtb.readHits                             0                       # DTB read hits
system.cpu.dtb.readMisses                           0                       # DTB read misses
system.cpu.dtb.writeHits                            0                       # DTB write hits
system.cpu.dtb.writeMisses                          0                       # DTB write misses
system.cpu.dtb.inserts                              0                       # Number of times an entry is inserted into the TLB
system.cpu.dtb.flushTlb                             0                       # Number of times complete TLB was flushed
system.cpu.dtb.flushTlbMva                          0                       # Number of times TLB was flushed by MVA
system.cpu.dtb.flushTlbMvaAsid                      0                       # Number of times TLB was flushed by MVA & ASID
system.cpu.dtb.flushTlbAsid                         0                       # Number of times TLB was flushed by ASID
system.cpu.dtb.flushedEntries                       0                       # Number of entries that have been flushed from TLB
system.cpu.dtb.alignFaults                          0                       # Number of TLB faults due to alignment restrictions
system.cpu.dtb.prefetchFaults                       0                       # Number of TLB faults due to prefetch
system.cpu.dtb.domainFaults                         0                       # Number of TLB faults due to domain restrictions
system.cpu.dtb.permsFaults                          0                       # Number of TLB faults due to permissions restrictions
system.cpu.dtb.readAccesses                         0                       # DTB read accesses
system.cpu.dtb.writeAccesses                        0                       # DTB write accesses
system.cpu.dtb.instAccesses                         0                       # ITB inst accesses
system.cpu.dtb.hits                                 0                       # Total TLB (inst and data) hits
system.cpu.dtb.misses                               0                       # Total TLB (inst and data) misses
system.cpu.dtb.accesses                             0                       # Total TLB (inst and data) accesses
system.cpu.dtb.stage2_mmu.stage2_tlb.instHits            0                       # ITB inst hits
system.cpu.dtb.stage2_mmu.stage2_tlb.instMisses            0                       # ITB inst misses
system.cpu.dtb.stage2_mmu.stage2_tlb.readHits            0                       # DTB read hits
system.cpu.dtb.stage2_mmu.stage2_tlb.readMisses            0                       # DTB read misses
system.cpu.dtb.stage2_mmu.stage2_tlb.writeHits            0                       # DTB write hits
system.cpu.dtb.stage2_mmu.stage2_tlb.writeMisses            0                       # DTB write misses
system.cpu.dtb.stage2_mmu.stage2_tlb.inserts            0                       # Number of times an entry is inserted into the TLB
system.cpu.dtb.stage2_mmu.stage2_tlb.flushTlb            0                       # Number of times complete TLB was flushed
system.cpu.dtb.stage2_mmu.stage2_tlb.flushTlbMva            0                       # Number of times TLB was flushed by MVA
system.cpu.dtb.stage2_mmu.stage2_tlb.flushTlbMvaAsid            0                       # Number of times TLB was flushed by MVA & ASID
system.cpu.dtb.stage2_mmu.stage2_tlb.flushTlbAsid            0                       # Number of times TLB was flushed by ASID
system.cpu.dtb.stage2_mmu.stage2_tlb.flushedEntries            0                       # Number of entries that have been flushed from TLB
system.cpu.dtb.stage2_mmu.stage2_tlb.alignFaults            0                       # Number of TLB faults due to alignment restrictions
system.cpu.dtb.stage2_mmu.stage2_tlb.prefetchFaults            0                       # Number of TLB faults due to prefetch
system.cpu.dtb.stage2_mmu.stage2_tlb.domainFaults            0                       # Number of TLB faults due to domain restrictions
system.cpu.dtb.stage2_mmu.stage2_tlb.permsFaults            0                       # Number of TLB faults due to permissions restrictions
system.cpu.dtb.stage2_mmu.stage2_tlb.readAccesses            0                       # DTB read accesses
system.cpu.dtb.stage2_mmu.stage2_tlb.writeAccesses            0                       # DTB write accesses
system.cpu.dtb.stage2_mmu.stage2_tlb.instAccesses            0                       # ITB inst accesses
system.cpu.dtb.stage2_mmu.stage2_tlb.hits            0                       # Total TLB (inst and data) hits
system.cpu.dtb.stage2_mmu.stage2_tlb.misses            0                       # Total TLB (inst and data) misses
system.cpu.dtb.stage2_mmu.stage2_tlb.accesses            0                       # Total TLB (inst and data) accesses
system.cpu.dtb.stage2_mmu.stage2_tlb.walker.walks            0                       # Table walker walks requested
system.cpu.dtb.stage2_mmu.stage2_tlb.walker.requestOrigin_Requested::Data            0                       # Table walker requests started/completed, data/inst
system.cpu.dtb.stage2_mmu.stage2_tlb.walker.requestOrigin_Requested::Inst            0                       # Table walker requests started/completed, data/inst
system.cpu.dtb.stage2_mmu.stage2_tlb.walker.requestOrigin_Requested::total            0                       # Table walker requests started/completed, data/inst
system.cpu.dtb.stage2_mmu.stage2_tlb.walker.requestOrigin_Completed::Data            0                       # Table walker requests started/completed, data/inst
system.cpu.dtb.stage2_mmu.stage2_tlb.walker.requestOrigin_Completed::Inst            0                       # Table walker requests started/completed, data/inst
system.cpu.dtb.stage2_mmu.stage2_tlb.walker.requestOrigin_Completed::total            0                       # Table walker requests started/completed, data/inst
system.cpu.dtb.stage2_mmu.stage2_tlb.walker.requestOrigin::total            0                       # Table walker requests started/completed, data/inst
system.cpu.dtb.stage2_mmu.stage2_tlb.walker.power_state.pwrStateResidencyTicks::UNDEFINED 174763479500                       # Cumulative time (in ticks) in various power states
system.cpu.dtb.walker.walks                         0                       # Table walker walks requested
system.cpu.dtb.walker.requestOrigin_Requested::Data            0                       # Table walker requests started/completed, data/inst
system.cpu.dtb.walker.requestOrigin_Requested::Inst            0                       # Table walker requests started/completed, data/inst
system.cpu.dtb.walker.requestOrigin_Requested::total            0                       # Table walker requests started/completed, data/inst
system.cpu.dtb.walker.requestOrigin_Completed::Data            0                       # Table walker requests started/completed, data/inst
system.cpu.dtb.walker.requestOrigin_Completed::Inst            0                       # Table walker requests started/completed, data/inst
system.cpu.dtb.walker.requestOrigin_Completed::total            0                       # Table walker requests started/completed, data/inst
system.cpu.dtb.walker.requestOrigin::total            0                       # Table walker requests started/completed, data/inst
system.cpu.dtb.walker.power_state.pwrStateResidencyTicks::UNDEFINED 174763479500                       # Cumulative time (in ticks) in various power states
system.cpu.fetch2.intInstructions            49669765                       # Number of integer instructions successfully decoded
system.cpu.fetch2.fpInstructions                    0                       # Number of floating point instructions successfully decoded
system.cpu.fetch2.vecInstructions                   0                       # Number of SIMD instructions successfully decoded
system.cpu.fetch2.loadInstructions           37092333                       # Number of memory load instructions successfully decoded
system.cpu.fetch2.storeInstructions          13161138                       # Number of memory store instructions successfully decoded
system.cpu.fetch2.amoInstructions                   0                       # Number of memory atomic instructions successfully decoded
system.cpu.icache.demand_hits::.cpu.inst      6046073                       # number of demand (read+write) hits
system.cpu.icache.demand_hits::total          6046073                       # number of demand (read+write) hits
system.cpu.icache.overall_hits::.cpu.inst      6046073                       # number of overall hits
system.cpu.icache.overall_hits::total         6046073                       # number of overall hits
system.cpu.icache.demand_misses::.cpu.inst          567                       # number of demand (read+write) misses
system.cpu.icache.demand_misses::total            567                       # number of demand (read+write) misses
system.cpu.icache.overall_misses::.cpu.inst          567                       # number of overall misses
system.cpu.icache.overall_misses::total           567                       # number of overall misses
system.cpu.icache.demand_miss_latency::.cpu.inst     39632000                       # number of demand (read+write) miss cycles
system.cpu.icache.demand_miss_latency::total     39632000                       # number of demand (read+write) miss cycles
system.cpu.icache.overall_miss_latency::.cpu.inst     39632000                       # number of overall miss cycles
system.cpu.icache.overall_miss_latency::total     39632000                       # number of overall miss cycles
system.cpu.icache.demand_accesses::.cpu.inst      6046640                       # number of demand (read+write) accesses
system.cpu.icache.demand_accesses::total      6046640                       # number of demand (read+write) accesses
system.cpu.icache.overall_accesses::.cpu.inst      6046640                       # number of overall (read+write) accesses
system.cpu.icache.overall_accesses::total      6046640                       # number of overall (read+write) accesses
system.cpu.icache.demand_miss_rate::.cpu.inst     0.000094                       # miss rate for demand accesses
system.cpu.icache.demand_miss_rate::total     0.000094                       # miss rate for demand accesses
system.cpu.icache.overall_miss_rate::.cpu.inst     0.000094                       # miss rate for overall accesses
system.cpu.icache.overall_miss_rate::total     0.000094                       # miss rate for overall accesses
system.cpu.icache.demand_avg_miss_latency::.cpu.inst 69897.707231                       # average overall miss latency
system.cpu.icache.demand_avg_miss_latency::total 69897.707231                       # average overall miss latency
system.cpu.icache.overall_avg_miss_latency::.cpu.inst 69897.707231                       # average overall miss latency
system.cpu.icache.overall_avg_miss_latency::total 69897.707231                       # average overall miss latency
system.cpu.icache.blocked_cycles::no_mshrs            0                       # number of cycles access was blocked
system.cpu.icache.blocked_cycles::no_targets            0                       # number of cycles access was blocked
system.cpu.icache.blocked::no_mshrs                 0                       # number of cycles access was blocked
system.cpu.icache.blocked::no_targets               0                       # number of cycles access was blocked
system.cpu.icache.avg_blocked_cycles::no_mshrs          nan                       # average number of cycles each access was blocked
system.cpu.icache.avg_blocked_cycles::no_targets          nan                       # average number of cycles each access was blocked
system.cpu.icache.writebacks::.writebacks          223                       # number of writebacks
system.cpu.icache.writebacks::total               223                       # number of writebacks
system.cpu.icache.demand_mshr_misses::.cpu.inst          567                       # number of demand (read+write) MSHR misses
system.cpu.icache.demand_mshr_misses::total          567                       # number of demand (read+write) MSHR misses
system.cpu.icache.overall_mshr_misses::.cpu.inst          567                       # number of overall MSHR misses
system.cpu.icache.overall_mshr_misses::total          567                       # number of overall MSHR misses
system.cpu.icache.demand_mshr_miss_latency::.cpu.inst     39065000                       # number of demand (read+write) MSHR miss cycles
system.cpu.icache.demand_mshr_miss_latency::total     39065000                       # number of demand (read+write) MSHR miss cycles
system.cpu.icache.overall_mshr_miss_latency::.cpu.inst     39065000                       # number of overall MSHR miss cycles
system.cpu.icache.overall_mshr_miss_latency::total     39065000                       # number of overall MSHR miss cycles
system.cpu.icache.demand_mshr_miss_rate::.cpu.inst     0.000094                       # mshr miss rate for demand accesses
system.cpu.icache.demand_mshr_miss_rate::total     0.000094                       # mshr miss rate for demand accesses
system.cpu.icache.overall_mshr_miss_rate::.cpu.inst     0.000094                       # mshr miss rate for overall accesses
system.cpu.icache.overall_mshr_miss_rate::total     0.000094                       # mshr miss rate for overall accesses
system.cpu.icache.demand_avg_mshr_miss_latency::.cpu.inst 68897.707231                       # average overall mshr miss latency
system.cpu.icache.demand_avg_mshr_miss_latency::total 68897.707231                       # average overall mshr miss latency
system.cpu.icache.overall_avg_mshr_miss_latency::.cpu.inst 68897.707231                       # average overall mshr miss latency
system.cpu.icache.overall_avg_mshr_miss_latency::total 68897.707231                       # average overall mshr miss latency
system.cpu.icache.replacements                    223                       # number of replacements
system.cpu.icache.ReadReq_hits::.cpu.inst      6046073                       # number of ReadReq hits
system.cpu.icache.ReadReq_hits::total         6046073                       # number of ReadReq hits
system.cpu.icache.ReadReq_misses::.cpu.inst          567                       # number of ReadReq misses
system.cpu.icache.ReadReq_misses::total           567                       # number of ReadReq misses
system.cpu.icache.ReadReq_miss_latency::.cpu.inst     39632000                       # number of ReadReq miss cycles
system.cpu.icache.ReadReq_miss_latency::total     39632000                       # number of ReadReq miss cycles
system.cpu.icache.ReadReq_accesses::.cpu.inst      6046640                       # number of ReadReq accesses(hits+misses)
system.cpu.icache.ReadReq_accesses::total      6046640                       # number of ReadReq accesses(hits+misses)
system.cpu.icache.ReadReq_miss_rate::.cpu.inst     0.000094                       # miss rate for ReadReq accesses
system.cpu.icache.ReadReq_miss_rate::total     0.000094                       # miss rate for ReadReq accesses
system.cpu.icache.ReadReq_avg_miss_latency::.cpu.inst 69897.707231                       # average ReadReq miss latency
system.cpu.icache.ReadReq_avg_miss_latency::total 69897.707231                       # average ReadReq miss latency
system.cpu.icache.ReadReq_mshr_misses::.cpu.inst          567                       # number of ReadReq MSHR misses
system.cpu.icache.ReadReq_mshr_misses::total          567                       # number of ReadReq MSHR misses
system.cpu.icache.ReadReq_mshr_miss_latency::.cpu.inst     39065000                       # number of ReadReq MSHR miss cycles
system.cpu.icache.ReadReq_mshr_miss_latency::total     39065000                       # number of ReadReq MSHR miss cycles
system.cpu.icache.ReadReq_mshr_miss_rate::.cpu.inst     0.000094                       # mshr miss rate for ReadReq accesses
system.cpu.icache.ReadReq_mshr_miss_rate::total     0.000094                       # mshr miss rate for ReadReq accesses
system.cpu.icache.ReadReq_avg_mshr_miss_latency::.cpu.inst 68897.707231                       # average ReadReq mshr miss latency
system.cpu.icache.ReadReq_avg_mshr_miss_latency::total 68897.707231                       # average ReadReq mshr miss latency
system.cpu.icache.power_state.pwrStateResidencyTicks::UNDEFINED 174763479500                       # Cumulative time (in ticks) in various power states
system.cpu.icache.tags.tagsinuse           343.953609                       # Cycle average of tags in use
system.cpu.icache.tags.total_refs             6046640                       # Total number of references to valid blocks.
system.cpu.icache.tags.sampled_refs               567                       # Sample count of references to valid blocks.
system.cpu.icache.tags.avg_refs          10664.268078                       # Average number of references to valid blocks.
system.cpu.icache.tags.warmup_cycle             87500                       # Cycle when the warmup percentage was hit.
system.cpu.icache.tags.occ_blocks::.cpu.inst   343.953609                       # Average occupied blocks per requestor
system.cpu.icache.tags.occ_percent::.cpu.inst     0.671784                       # Average percentage of cache occupancy
system.cpu.icache.tags.occ_percent::total     0.671784                       # Average percentage of cache occupancy
system.cpu.icache.tags.occ_task_id_blocks::1024          344                       # Occupied blocks per task id
system.cpu.icache.tags.age_task_id_blocks_1024::4          344                       # Occupied blocks per task id
system.cpu.icache.tags.occ_task_id_percent::1024     0.671875                       # Percentage of cache occupancy per task id
system.cpu.icache.tags.tag_accesses          12093847                       # Number of tag accesses
system.cpu.icache.tags.data_accesses         12093847                       # Number of data accesses
system.cpu.icache.tags.power_state.pwrStateResidencyTicks::UNDEFINED 174763479500                       # Cumulative time (in ticks) in various power states
system.cpu.itb.instHits                             0                       # ITB inst hits
system.cpu.itb.instMisses                           0                       # ITB inst misses
system.cpu.itb.readHits                             0                       # DTB read hits
system.cpu.itb.readMisses                           0                       # DTB read misses
system.cpu.itb.writeHits                            0                       # DTB write hits
system.cpu.itb.writeMisses                          0                       # DTB write misses
system.cpu.itb.inserts                              0                       # Number of times an entry is inserted into the TLB
system.cpu.itb.flushTlb                             0                       # Number of times complete TLB was flushed
system.cpu.itb.flushTlbMva                          0                       # Number of times TLB was flushed by MVA
system.cpu.itb.flushTlbMvaAsid                      0                       # Number of times TLB was flushed by MVA & ASID
system.cpu.itb.flushTlbAsid                         0                       # Number of times TLB was flushed by ASID
system.cpu.itb.flushedEntries                       0                       # Number of entries that have been flushed from TLB
system.cpu.itb.alignFaults                          0                       # Number of TLB faults due to alignment restrictions
system.cpu.itb.prefetchFaults                       0                       # Number of TLB faults due to prefetch
system.cpu.itb.domainFaults                         0                       # Number of TLB faults due to domain restrictions
system.cpu.itb.permsFaults                          0                       # Number of TLB faults due to permissions restrictions
system.cpu.itb.readAccesses                         0                       # DTB read accesses
system.cpu.itb.writeAccesses                        0                       # DTB write accesses
system.cpu.itb.instAccesses                         0                       # ITB inst accesses
system.cpu.itb.hits                                 0                       # Total TLB (inst and data) hits
system.cpu.itb.misses                               0                       # Total TLB (inst and data) misses
system.cpu.itb.accesses                             0                       # Total TLB (inst and data) accesses
system.cpu.itb.stage2_mmu.stage2_tlb.instHits            0                       # ITB inst hits
system.cpu.itb.stage2_mmu.stage2_tlb.instMisses            0                       # ITB inst misses
system.cpu.itb.stage2_mmu.stage2_tlb.readHits            0                       # DTB read hits
system.cpu.itb.stage2_mmu.stage2_tlb.readMisses            0                       # DTB read misses
system.cpu.itb.stage2_mmu.stage2_tlb.writeHits            0                       # DTB write hits
system.cpu.itb.stage2_mmu.stage2_tlb.writeMisses            0                       # DTB write misses
system.cpu.itb.stage2_mmu.stage2_tlb.inserts            0                       # Number of times an entry is inserted into the TLB
system.cpu.itb.stage2_mmu.stage2_tlb.flushTlb            0                       # Number of times complete TLB was flushed
system.cpu.itb.stage2_mmu.stage2_tlb.flushTlbMva            0                       # Number of times TLB was flushed by MVA
system.cpu.itb.stage2_mmu.stage2_tlb.flushTlbMvaAsid            0                       # Number of times TLB was flushed by MVA & ASID
system.cpu.itb.stage2_mmu.stage2_tlb.flushTlbAsid            0                       # Number of times TLB was flushed by ASID
system.cpu.itb.stage2_mmu.stage2_tlb.flushedEntries            0                       # Number of entries that have been flushed from TLB
system.cpu.itb.stage2_mmu.stage2_tlb.alignFaults            0                       # Number of TLB faults due to alignment restrictions
system.cpu.itb.stage2_mmu.stage2_tlb.prefetchFaults            0                       # Number of TLB faults due to prefetch
system.cpu.itb.stage2_mmu.stage2_tlb.domainFaults            0                       # Number of TLB faults due to domain restrictions
system.cpu.itb.stage2_mmu.stage2_tlb.permsFaults            0                       # Number of TLB faults due to permissions restrictions
system.cpu.itb.stage2_mmu.stage2_tlb.readAccesses            0                       # DTB read accesses
system.cpu.itb.stage2_mmu.stage2_tlb.writeAccesses            0                       # DTB write accesses
system.cpu.itb.stage2_mmu.stage2_tlb.instAccesses            0                       # ITB inst accesses
system.cpu.itb.stage2_mmu.stage2_tlb.hits            0                       # Total TLB (inst and data) hits
system.cpu.itb.stage2_mmu.stage2_tlb.misses            0                       # Total TLB (inst and data) misses
system.cpu.itb.stage2_mmu.stage2_tlb.accesses            0                       # Total TLB (inst and data) accesses
system.cpu.itb.stage2_mmu.stage2_tlb.walker.walks            0                       # Table walker walks requested
system.cpu.itb.stage2_mmu.stage2_tlb.walker.requestOrigin_Requested::Data            0                       # Table walker requests started/completed, data/inst
system.cpu.itb.stage2_mmu.stage2_tlb.walker.requestOrigin_Requested::Inst            0                       # Table walker requests started/completed, data/inst
system.cpu.itb.stage2_mmu.stage2_tlb.walker.requestOrigin_Requested::total            0                       # Table walker requests started/completed, data/inst
system.cpu.itb.stage2_mmu.stage2_tlb.walker.requestOrigin_Completed::Data            0                       # Table walker requests started/completed, data/inst
system.cpu.itb.stage2_mmu.stage2_tlb.walker.requestOrigin_Completed::Inst            0                       # Table walker requests started/completed, data/inst
system.cpu.itb.stage2_mmu.stage2_tlb.walker.requestOrigin_Completed::total            0                       # Table walker requests started/completed, data/inst
system.cpu.itb.stage2_mmu.stage2_tlb.walker.requestOrigin::total            0                       # Table walker requests started/completed, data/inst
system.cpu.itb.stage2_mmu.stage2_tlb.walker.power_state.pwrStateResidencyTicks::UNDEFINED 174763479500                       # Cumulative time (in ticks) in various power states
system.cpu.itb.walker.walks                         0                       # Table walker walks requested
system.cpu.itb.walker.requestOrigin_Requested::Data            0                       # Table walker requests started/completed, data/inst
system.cpu.itb.walker.requestOrigin_Requested::Inst            0                       # Table walker requests started/completed, data/inst
system.cpu.itb.walker.requestOrigin_Requested::total            0                       # Table walker requests started/completed, data/inst
system.cpu.itb.walker.requestOrigin_Completed::Data            0                       # Table walker requests started/completed, data/inst
system.cpu.itb.walker.requestOrigin_Completed::Inst            0                       # Table walker requests started/completed, data/inst
system.cpu.itb.walker.requestOrigin_Completed::total            0                       # Table walker requests started/completed, data/inst
system.cpu.itb.walker.requestOrigin::total            0                       # Table walker requests started/completed, data/inst
system.cpu.itb.walker.power_state.pwrStateResidencyTicks::UNDEFINED 174763479500                       # Cumulative time (in ticks) in various power states
system.cpu.power_state.pwrStateResidencyTicks::ON 174763479500                       # Cumulative time (in ticks) in various power states
system.cpu.thread_0.numInsts                100000000                       # Number of Instructions committed
system.cpu.thread_0.numOps                  100003630                       # Number of Ops committed
system.cpu.thread_0.numMemRefs                      0                       # Number of Memory References
system.cpu_clk_domain.clock                       500                       # Clock period in ticks
system.cpu_voltage_domain.voltage                   1                       # Voltage in Volts
system.l2.demand_hits::.cpu.inst                   71                       # number of demand (read+write) hits
system.l2.demand_hits::.cpu.data                   14                       # number of demand (read+write) hits
system.l2.demand_hits::total                       85                       # number of demand (read+write) hits
system.l2.overall_hits::.cpu.inst                  71                       # number of overall hits
system.l2.overall_hits::.cpu.data                  14                       # number of overall hits
system.l2.overall_hits::total                      85                       # number of overall hits
system.l2.demand_misses::.cpu.inst                496                       # number of demand (read+write) misses
system.l2.demand_misses::.cpu.data            1487616                       # number of demand (read+write) misses
system.l2.demand_misses::total                1488112                       # number of demand (read+write) misses
system.l2.overall_misses::.cpu.inst               496                       # number of overall misses
system.l2.overall_misses::.cpu.data           1487616                       # number of overall misses
system.l2.overall_misses::total               1488112                       # number of overall misses
system.l2.demand_miss_latency::.cpu.inst     37455000                       # number of demand (read+write) miss cycles
system.l2.demand_miss_latency::.cpu.data 118855856500                       # number of demand (read+write) miss cycles
system.l2.demand_miss_latency::total     118893311500                       # number of demand (read+write) miss cycles
system.l2.overall_miss_latency::.cpu.inst     37455000                       # number of overall miss cycles
system.l2.overall_miss_latency::.cpu.data 118855856500                       # number of overall miss cycles
system.l2.overall_miss_latency::total    118893311500                       # number of overall miss cycles
system.l2.demand_accesses::.cpu.inst              567                       # number of demand (read+write) accesses
system.l2.demand_accesses::.cpu.data          1487630                       # number of demand (read+write) accesses
system.l2.demand_accesses::total              1488197                       # number of demand (read+write) accesses
system.l2.overall_accesses::.cpu.inst             567                       # number of overall (read+write) accesses
system.l2.overall_accesses::.cpu.data         1487630                       # number of overall (read+write) accesses
system.l2.overall_accesses::total             1488197                       # number of overall (read+write) accesses
system.l2.demand_miss_rate::.cpu.inst        0.874780                       # miss rate for demand accesses
system.l2.demand_miss_rate::.cpu.data        0.999991                       # miss rate for demand accesses
system.l2.demand_miss_rate::total            0.999943                       # miss rate for demand accesses
system.l2.overall_miss_rate::.cpu.inst       0.874780                       # miss rate for overall accesses
system.l2.overall_miss_rate::.cpu.data       0.999991                       # miss rate for overall accesses
system.l2.overall_miss_rate::total           0.999943                       # miss rate for overall accesses
system.l2.demand_avg_miss_latency::.cpu.inst 75514.112903                       # average overall miss latency
system.l2.demand_avg_miss_latency::.cpu.data 79896.866194                       # average overall miss latency
system.l2.demand_avg_miss_latency::total 79895.405386                       # average overall miss latency
system.l2.overall_avg_miss_latency::.cpu.inst 75514.112903                       # average overall miss latency
system.l2.overall_avg_miss_latency::.cpu.data 79896.866194                       # average overall miss latency
system.l2.overall_avg_miss_latency::total 79895.405386                       # average overall miss latency
system.l2.blocked_cycles::no_mshrs                  0                       # number of cycles access was blocked
system.l2.blocked_cycles::no_targets                0                       # number of cycles access was blocked
system.l2.blocked::no_mshrs                         0                       # number of cycles access was blocked
system.l2.blocked::no_targets                       0                       # number of cycles access was blocked
system.l2.avg_blocked_cycles::no_mshrs            nan                       # average number of cycles each access was blocked
system.l2.avg_blocked_cycles::no_targets          nan                       # average number of cycles each access was blocked
system.l2.writebacks::.writebacks             1454751                       # number of writebacks
system.l2.writebacks::total                   1454751                       # number of writebacks
system.l2.demand_mshr_hits::.cpu.data               2                       # number of demand (read+write) MSHR hits
system.l2.demand_mshr_hits::total                   2                       # number of demand (read+write) MSHR hits
system.l2.overall_mshr_hits::.cpu.data              2                       # number of overall MSHR hits
system.l2.overall_mshr_hits::total                  2                       # number of overall MSHR hits
system.l2.demand_mshr_misses::.cpu.inst           496                       # number of demand (read+write) MSHR misses
system.l2.demand_mshr_misses::.cpu.data       1487614                       # number of demand (read+write) MSHR misses
system.l2.demand_mshr_misses::total           1488110                       # number of demand (read+write) MSHR misses
system.l2.overall_mshr_misses::.cpu.inst          496                       # number of overall MSHR misses
system.l2.overall_mshr_misses::.cpu.data      1487614                       # number of overall MSHR misses
system.l2.overall_mshr_misses::total          1488110                       # number of overall MSHR misses
system.l2.demand_mshr_miss_latency::.cpu.inst     32495000                       # number of demand (read+write) MSHR miss cycles
system.l2.demand_mshr_miss_latency::.cpu.data 103979587500                       # number of demand (read+write) MSHR miss cycles
system.l2.demand_mshr_miss_latency::total 104012082500                       # number of demand (read+write) MSHR miss cycles
system.l2.overall_mshr_miss_latency::.cpu.inst     32495000                       # number of overall MSHR miss cycles
system.l2.overall_mshr_miss_latency::.cpu.data 103979587500                       # number of overall MSHR miss cycles
system.l2.overall_mshr_miss_latency::total 104012082500                       # number of overall MSHR miss cycles
system.l2.demand_mshr_miss_rate::.cpu.inst     0.874780                       # mshr miss rate for demand accesses
system.l2.demand_mshr_miss_rate::.cpu.data     0.999989                       # mshr miss rate for demand accesses
system.l2.demand_mshr_miss_rate::total       0.999942                       # mshr miss rate for demand accesses
system.l2.overall_mshr_miss_rate::.cpu.inst     0.874780                       # mshr miss rate for overall accesses
system.l2.overall_mshr_miss_rate::.cpu.data     0.999989                       # mshr miss rate for overall accesses
system.l2.overall_mshr_miss_rate::total      0.999942                       # mshr miss rate for overall accesses
system.l2.demand_avg_mshr_miss_latency::.cpu.inst 65514.112903                       # average overall mshr miss latency
system.l2.demand_avg_mshr_miss_latency::.cpu.data 69896.886894                       # average overall mshr miss latency
system.l2.demand_avg_mshr_miss_latency::total 69895.426077                       # average overall mshr miss latency
system.l2.overall_avg_mshr_miss_latency::.cpu.inst 65514.112903                       # average overall mshr miss latency
system.l2.overall_avg_mshr_miss_latency::.cpu.data 69896.886894                       # average overall mshr miss latency
system.l2.overall_avg_mshr_miss_latency::total 69895.426077                       # average overall mshr miss latency
system.l2.replacements                        1455342                       # number of replacements
system.l2.WritebackDirty_hits::.writebacks      1486497                       # number of WritebackDirty hits
system.l2.WritebackDirty_hits::total          1486497                       # number of WritebackDirty hits
system.l2.WritebackDirty_accesses::.writebacks      1486497                       # number of WritebackDirty accesses(hits+misses)
system.l2.WritebackDirty_accesses::total      1486497                       # number of WritebackDirty accesses(hits+misses)
system.l2.WritebackClean_hits::.writebacks          207                       # number of WritebackClean hits
system.l2.WritebackClean_hits::total              207                       # number of WritebackClean hits
system.l2.WritebackClean_accesses::.writebacks          207                       # number of WritebackClean accesses(hits+misses)
system.l2.WritebackClean_accesses::total          207                       # number of WritebackClean accesses(hits+misses)
system.l2.ReadExReq_misses::.cpu.data         1487503                       # number of ReadExReq misses
system.l2.ReadExReq_misses::total             1487503                       # number of ReadExReq misses
system.l2.ReadExReq_miss_latency::.cpu.data 118847211000                       # number of ReadExReq miss cycles
system.l2.ReadExReq_miss_latency::total  118847211000                       # number of ReadExReq miss cycles
system.l2.ReadExReq_accesses::.cpu.data       1487503                       # number of ReadExReq accesses(hits+misses)
system.l2.ReadExReq_accesses::total           1487503                       # number of ReadExReq accesses(hits+misses)
system.l2.ReadExReq_miss_rate::.cpu.data            1                       # miss rate for ReadExReq accesses
system.l2.ReadExReq_miss_rate::total                1                       # miss rate for ReadExReq accesses
system.l2.ReadExReq_avg_miss_latency::.cpu.data 79897.123569                       # average ReadExReq miss latency
system.l2.ReadExReq_avg_miss_latency::total 79897.123569                       # average ReadExReq miss latency
system.l2.ReadExReq_mshr_misses::.cpu.data      1487503                       # number of ReadExReq MSHR misses
system.l2.ReadExReq_mshr_misses::total        1487503                       # number of ReadExReq MSHR misses
system.l2.ReadExReq_mshr_miss_latency::.cpu.data 103972181000                       # number of ReadExReq MSHR miss cycles
system.l2.ReadExReq_mshr_miss_latency::total 103972181000                       # number of ReadExReq MSHR miss cycles
system.l2.ReadExReq_mshr_miss_rate::.cpu.data            1                       # mshr miss rate for ReadExReq accesses
system.l2.ReadExReq_mshr_miss_rate::total            1                       # mshr miss rate for ReadExReq accesses
system.l2.ReadExReq_avg_mshr_miss_latency::.cpu.data 69897.123569                       # average ReadExReq mshr miss latency
system.l2.ReadExReq_avg_mshr_miss_latency::total 69897.123569                       # average ReadExReq mshr miss latency
system.l2.ReadCleanReq_hits::.cpu.inst             71                       # number of ReadCleanReq hits
system.l2.ReadCleanReq_hits::total                 71                       # number of ReadCleanReq hits
system.l2.ReadCleanReq_misses::.cpu.inst          496                       # number of ReadCleanReq misses
system.l2.ReadCleanReq_misses::total              496                       # number of ReadCleanReq misses
system.l2.ReadCleanReq_miss_latency::.cpu.inst     37455000                       # number of ReadCleanReq miss cycles
system.l2.ReadCleanReq_miss_latency::total     37455000                       # number of ReadCleanReq miss cycles
system.l2.ReadCleanReq_accesses::.cpu.inst          567                       # number of ReadCleanReq accesses(hits+misses)
system.l2.ReadCleanReq_accesses::total            567                       # number of ReadCleanReq accesses(hits+misses)
system.l2.ReadCleanReq_miss_rate::.cpu.inst     0.874780                       # miss rate for ReadCleanReq accesses
system.l2.ReadCleanReq_miss_rate::total      0.874780                       # miss rate for ReadCleanReq accesses
system.l2.ReadCleanReq_avg_miss_latency::.cpu.inst 75514.112903                       # average ReadCleanReq miss latency
system.l2.ReadCleanReq_avg_miss_latency::total 75514.112903                       # average ReadCleanReq miss latency
system.l2.ReadCleanReq_mshr_misses::.cpu.inst          496                       # number of ReadCleanReq MSHR misses
system.l2.ReadCleanReq_mshr_misses::total          496                       # number of ReadCleanReq MSHR misses
system.l2.ReadCleanReq_mshr_miss_latency::.cpu.inst     32495000                       # number of ReadCleanReq MSHR miss cycles
system.l2.ReadCleanReq_mshr_miss_latency::total     32495000                       # number of ReadCleanReq MSHR miss cycles
system.l2.ReadCleanReq_mshr_miss_rate::.cpu.inst     0.874780                       # mshr miss rate for ReadCleanReq accesses
system.l2.ReadCleanReq_mshr_miss_rate::total     0.874780                       # mshr miss rate for ReadCleanReq accesses
system.l2.ReadCleanReq_avg_mshr_miss_latency::.cpu.inst 65514.112903                       # average ReadCleanReq mshr miss latency
system.l2.ReadCleanReq_avg_mshr_miss_latency::total 65514.112903                       # average ReadCleanReq mshr miss latency
system.l2.ReadSharedReq_hits::.cpu.data            14                       # number of ReadSharedReq hits
system.l2.ReadSharedReq_hits::total                14                       # number of ReadSharedReq hits
system.l2.ReadSharedReq_misses::.cpu.data          113                       # number of ReadSharedReq misses
system.l2.ReadSharedReq_misses::total             113                       # number of ReadSharedReq misses
system.l2.ReadSharedReq_miss_latency::.cpu.data      8645500                       # number of ReadSharedReq miss cycles
system.l2.ReadSharedReq_miss_latency::total      8645500                       # number of ReadSharedReq miss cycles
system.l2.ReadSharedReq_accesses::.cpu.data          127                       # number of ReadSharedReq accesses(hits+misses)
system.l2.ReadSharedReq_accesses::total           127                       # number of ReadSharedReq accesses(hits+misses)
system.l2.ReadSharedReq_miss_rate::.cpu.data     0.889764                       # miss rate for ReadSharedReq accesses
system.l2.ReadSharedReq_miss_rate::total     0.889764                       # miss rate for ReadSharedReq accesses
system.l2.ReadSharedReq_avg_miss_latency::.cpu.data 76508.849558                       # average ReadSharedReq miss latency
system.l2.ReadSharedReq_avg_miss_latency::total 76508.849558                       # average ReadSharedReq miss latency
system.l2.ReadSharedReq_mshr_hits::.cpu.data            2                       # number of ReadSharedReq MSHR hits
system.l2.ReadSharedReq_mshr_hits::total            2                       # number of ReadSharedReq MSHR hits
system.l2.ReadSharedReq_mshr_misses::.cpu.data          111                       # number of ReadSharedReq MSHR misses
system.l2.ReadSharedReq_mshr_misses::total          111                       # number of ReadSharedReq MSHR misses
system.l2.ReadSharedReq_mshr_miss_latency::.cpu.data      7406500                       # number of ReadSharedReq MSHR miss cycles
system.l2.ReadSharedReq_mshr_miss_latency::total      7406500                       # number of ReadSharedReq MSHR miss cycles
system.l2.ReadSharedReq_mshr_miss_rate::.cpu.data     0.874016                       # mshr miss rate for ReadSharedReq accesses
system.l2.ReadSharedReq_mshr_miss_rate::total     0.874016                       # mshr miss rate for ReadSharedReq accesses
system.l2.ReadSharedReq_avg_mshr_miss_latency::.cpu.data 66725.225225                       # average ReadSharedReq mshr miss latency
system.l2.ReadSharedReq_avg_mshr_miss_latency::total 66725.225225                       # average ReadSharedReq mshr miss latency
system.l2.power_state.pwrStateResidencyTicks::UNDEFINED 174763479500                       # Cumulative time (in ticks) in various power states
system.l2.tags.tagsinuse                 32428.616330                       # Cycle average of tags in use
system.l2.tags.total_refs                     2974996                       # Total number of references to valid blocks.
system.l2.tags.sampled_refs                   1488110                       # Sample count of references to valid blocks.
system.l2.tags.avg_refs                      1.999177                       # Average number of references to valid blocks.
system.l2.tags.warmup_cycle                     77000                       # Cycle when the warmup percentage was hit.
system.l2.tags.occ_blocks::.cpu.inst         9.788096                       # Average occupied blocks per requestor
system.l2.tags.occ_blocks::.cpu.data     32418.828235                       # Average occupied blocks per requestor
system.l2.tags.occ_percent::.cpu.inst        0.000299                       # Average percentage of cache occupancy
system.l2.tags.occ_percent::.cpu.data        0.989344                       # Average percentage of cache occupancy
system.l2.tags.occ_percent::total            0.989643                       # Average percentage of cache occupancy
system.l2.tags.occ_task_id_blocks::1024         32768                       # Occupied blocks per task id
system.l2.tags.age_task_id_blocks_1024::0           84                       # Occupied blocks per task id
system.l2.tags.age_task_id_blocks_1024::1          765                       # Occupied blocks per task id
system.l2.tags.age_task_id_blocks_1024::2         7651                       # Occupied blocks per task id
system.l2.tags.age_task_id_blocks_1024::3        24268                       # Occupied blocks per task id
system.l2.tags.occ_task_id_percent::1024            1                       # Percentage of cache occupancy per task id
system.l2.tags.tag_accesses                  25288094                       # Number of tag accesses
system.l2.tags.data_accesses                 25288094                       # Number of data accesses
system.l2.tags.power_state.pwrStateResidencyTicks::UNDEFINED 174763479500                       # Cumulative time (in ticks) in various power states
system.mem_ctrls.avgPriority_.writebacks::samples   1454751.00                       # Average QoS priority value for accepted requests
system.mem_ctrls.avgPriority_.cpu.inst::samples       496.00                       # Average QoS priority value for accepted requests
system.mem_ctrls.avgPriority_.cpu.data::samples   1487614.00                       # Average QoS priority value for accepted requests
system.mem_ctrls.priorityMinLatency      0.000000018750                       # per QoS priority minimum request to response latency (s)
system.mem_ctrls.priorityMaxLatency      0.000075522500                       # per QoS priority maximum request to response latency (s)
system.mem_ctrls.numReadWriteTurnArounds        90852                       # Number of turnarounds from READ to WRITE
system.mem_ctrls.numWriteReadTurnArounds        90852                       # Number of turnarounds from WRITE to READ
system.mem_ctrls.numStayReadState             4382204                       # Number of times bus staying in READ state
system.mem_ctrls.numStayWriteState            1367469                       # Number of times bus staying in WRITE state
system.mem_ctrls.readReqs                     1488110                       # Number of read requests accepted
system.mem_ctrls.writeReqs                    1454751                       # Number of write requests accepted
system.mem_ctrls.readBursts                   1488110                       # Number of controller read bursts, including those serviced by the write queue
system.mem_ctrls.writeBursts                  1454751                       # Number of controller write bursts, including those merged in the write queue
system.mem_ctrls.servicedByWrQ                      0                       # Number of controller read bursts serviced by the write queue
system.mem_ctrls.mergedWrBursts                     0                       # Number of controller write bursts merged with an existing one
system.mem_ctrls.neitherReadNorWriteReqs            0                       # Number of requests that are neither read nor write
system.mem_ctrls.avgRdQLen                       1.00                       # Average read queue length when enqueuing
system.mem_ctrls.avgWrQLen                      25.36                       # Average write queue length when enqueuing
system.mem_ctrls.numRdRetry                         0                       # Number of times read queue was full causing retry
system.mem_ctrls.numWrRetry                         0                       # Number of times write queue was full causing retry
system.mem_ctrls.readPktSize::0                     0                       # Read request sizes (log2)
system.mem_ctrls.readPktSize::1                     0                       # Read request sizes (log2)
system.mem_ctrls.readPktSize::2                     0                       # Read request sizes (log2)
system.mem_ctrls.readPktSize::3                     0                       # Read request sizes (log2)
system.mem_ctrls.readPktSize::4                     0                       # Read request sizes (log2)
system.mem_ctrls.readPktSize::5                     0                       # Read request sizes (log2)
system.mem_ctrls.readPktSize::6               1488110                       # Read request sizes (log2)
system.mem_ctrls.writePktSize::0                    0                       # Write request sizes (log2)
system.mem_ctrls.writePktSize::1                    0                       # Write request sizes (log2)
system.mem_ctrls.writePktSize::2                    0                       # Write request sizes (log2)
system.mem_ctrls.writePktSize::3                    0                       # Write request sizes (log2)
system.mem_ctrls.writePktSize::4                    0                       # Write request sizes (log2)
system.mem_ctrls.writePktSize::5                    0                       # Write request sizes (log2)
system.mem_ctrls.writePktSize::6              1454751                       # Write request sizes (log2)
system.mem_ctrls.rdQLenPdf::0                 1488011                       # What read queue length does an incoming req see
system.mem_ctrls.rdQLenPdf::1                      92                       # What read queue length does an incoming req see
system.mem_ctrls.rdQLenPdf::2                       6                       # What read queue length does an incoming req see
system.mem_ctrls.rdQLenPdf::3                       1                       # What read queue length does an incoming req see
system.mem_ctrls.rdQLenPdf::4                       0                       # What read queue length does an incoming req see
system.mem_ctrls.rdQLenPdf::5                       0                       # What read queue length does an incoming req see
system.mem_ctrls.rdQLenPdf::6                       0                       # What read queue length does an incoming req see
system.mem_ctrls.rdQLenPdf::7                       0                       # What read queue length does an incoming req see
system.mem_ctrls.rdQLenPdf::8                       0                       # What read queue length does an incoming req see
system.mem_ctrls.rdQLenPdf::9                       0                       # What read queue length does an incoming req see
system.mem_ctrls.rdQLenPdf::10                      0                       # What read queue length does an incoming req see
system.mem_ctrls.rdQLenPdf::11                      0                       # What read queue length does an incoming req see
system.mem_ctrls.rdQLenPdf::12                      0                       # What read queue length does an incoming req see
system.mem_ctrls.rdQLenPdf::13                      0                       # What read queue length does an incoming req see
system.mem_ctrls.rdQLenPdf::14                      0                       # What read queue length does an incoming req see
system.mem_ctrls.rdQLenPdf::15                      0                       # What read queue length does an incoming req see
system.mem_ctrls.rdQLenPdf::16                      0                       # What read queue length does an incoming req see
[...]
system.mem_ctrls.dram.bw_write::.writebacks    532743250                       # Write bandwidth from this memory (bytes/s)
system.mem_ctrls.dram.bw_write::total       532743250                       # Write bandwidth from this memory (bytes/s)
system.mem_ctrls.dram.bw_total::.writebacks    532743250                       # Total bandwidth to/from this memory (bytes/s)
system.mem_ctrls.dram.bw_total::.cpu.inst       181640                       # Total bandwidth to/from this memory (bytes/s)
system.mem_ctrls.dram.bw_total::.cpu.data    544777984                       # Total bandwidth to/from this memory (bytes/s)
system.mem_ctrls.dram.bw_total::total      1077702873                       # Total bandwidth to/from this memory (bytes/s)
system.mem_ctrls.dram.readBursts              1488110                       # Number of DRAM read bursts
system.mem_ctrls.dram.writeBursts             1454730                       # Number of DRAM write bursts
system.mem_ctrls.dram.perBankRdBursts::0        93028                       # Per bank write bursts
system.mem_ctrls.dram.perBankRdBursts::1        92979                       # Per bank write bursts
system.mem_ctrls.dram.perBankRdBursts::2        92998                       # Per bank write bursts
system.mem_ctrls.dram.perBankRdBursts::3        92955                       # Per bank write bursts
system.mem_ctrls.dram.perBankRdBursts::4        92980                       # Per bank write bursts
system.mem_ctrls.dram.perBankRdBursts::5        93010                       # Per bank write bursts
system.mem_ctrls.dram.perBankRdBursts::6        93061                       # Per bank write bursts
system.mem_ctrls.dram.perBankRdBursts::7        93077                       # Per bank write bursts
system.mem_ctrls.dram.perBankRdBursts::8        93154                       # Per bank write bursts
system.mem_ctrls.dram.perBankRdBursts::9        93078                       # Per bank write bursts
system.mem_ctrls.dram.perBankRdBursts::10        92959                       # Per bank write bursts
system.mem_ctrls.dram.perBankRdBursts::11        92953                       # Per bank write bursts
system.mem_ctrls.dram.perBankRdBursts::12        92994                       # Per bank write bursts
system.mem_ctrls.dram.perBankRdBursts::13        92952                       # Per bank write bursts
system.mem_ctrls.dram.perBankRdBursts::14        92960                       # Per bank write bursts
system.mem_ctrls.dram.perBankRdBursts::15        92972                       # Per bank write bursts
system.mem_ctrls.dram.perBankWrBursts::0        90883                       # Per bank write bursts
system.mem_ctrls.dram.perBankWrBursts::1        90920                       # Per bank write bursts
system.mem_ctrls.dram.perBankWrBursts::2        90905                       # Per bank write bursts
system.mem_ctrls.dram.perBankWrBursts::3        90895                       # Per bank write bursts
system.mem_ctrls.dram.perBankWrBursts::4        90886                       # Per bank write bursts
system.mem_ctrls.dram.perBankWrBursts::5        90945                       # Per bank write bursts
system.mem_ctrls.dram.perBankWrBursts::6        91008                       # Per bank write bursts
system.mem_ctrls.dram.perBankWrBursts::7        91008                       # Per bank write bursts
system.mem_ctrls.dram.perBankWrBursts::8        91008                       # Per bank write bursts
system.mem_ctrls.dram.perBankWrBursts::9        90992                       # Per bank write bursts
system.mem_ctrls.dram.perBankWrBursts::10        90880                       # Per bank write bursts
system.mem_ctrls.dram.perBankWrBursts::11        90880                       # Per bank write bursts
system.mem_ctrls.dram.perBankWrBursts::12        90880                       # Per bank write bursts
system.mem_ctrls.dram.perBankWrBursts::13        90880                       # Per bank write bursts
system.mem_ctrls.dram.perBankWrBursts::14        90880                       # Per bank write bursts
system.mem_ctrls.dram.perBankWrBursts::15        90880                       # Per bank write bursts
system.mem_ctrls.dram.totQLat             14851445750                       # Total ticks spent queuing
system.mem_ctrls.dram.totBusLat            7440550000                       # Total ticks spent in databus transfers
system.mem_ctrls.dram.totMemAccLat        42753508250                       # Total ticks spent from burst creation until serviced by the DRAM
system.mem_ctrls.dram.avgQLat                 9980.07                       # Average queueing delay per DRAM burst
system.mem_ctrls.dram.avgBusLat               5000.00                       # Average bus latency per DRAM burst
system.mem_ctrls.dram.avgMemAccLat           28730.07                       # Average memory access latency per DRAM burst
system.mem_ctrls.dram.readRowHits             1367242                       # Number of row buffer hits during reads
system.mem_ctrls.dram.writeRowHits            1360534                       # Number of row buffer hits during writes
system.mem_ctrls.dram.readRowHitRate            91.88                       # Row buffer hit rate for reads
system.mem_ctrls.dram.writeRowHitRate           93.52                       # Row buffer hit rate for writes
system.mem_ctrls.dram.bytesPerActivate::samples       215063                       # Bytes accessed per row activation
system.mem_ctrls.dram.bytesPerActivate::mean   875.750083                       # Bytes accessed per row activation
system.mem_ctrls.dram.bytesPerActivate::gmean   756.811153                       # Bytes accessed per row activation
system.mem_ctrls.dram.bytesPerActivate::stdev   292.333977                       # Bytes accessed per row activation
system.mem_ctrls.dram.bytesPerActivate::0-127        11168      5.19%      5.19% # Bytes accessed per row activation
system.mem_ctrls.dram.bytesPerActivate::128-255         6863      3.19%      8.38% # Bytes accessed per row activation
system.mem_ctrls.dram.bytesPerActivate::256-383         4984      2.32%     10.70% # Bytes accessed per row activation
system.mem_ctrls.dram.bytesPerActivate::384-511         7158      3.33%     14.03% # Bytes accessed per row activation
system.mem_ctrls.dram.bytesPerActivate::512-639         5363      2.49%     16.52% # Bytes accessed per row activation
system.mem_ctrls.dram.bytesPerActivate::640-767         6982      3.25%     19.77% # Bytes accessed per row activation
system.mem_ctrls.dram.bytesPerActivate::768-895         5526      2.57%     22.34% # Bytes accessed per row activation
system.mem_ctrls.dram.bytesPerActivate::896-1023        14837      6.90%     29.24% # Bytes accessed per row activation
system.mem_ctrls.dram.bytesPerActivate::1024-1151       152182     70.76%    100.00% # Bytes accessed per row activation
system.mem_ctrls.dram.bytesPerActivate::total       215063                       # Bytes accessed per row activation
system.mem_ctrls.dram.bytesRead              95239040                       # Total number of bytes read from DRAM
system.mem_ctrls.dram.bytesWritten           93102720                       # Total number of bytes written to DRAM
system.mem_ctrls.dram.avgRdBW              544.959624                       # Average DRAM read bandwidth in MiBytes/s
system.mem_ctrls.dram.avgWrBW              532.735559                       # Average DRAM write bandwidth in MiBytes/s
system.mem_ctrls.dram.peakBW                 12800.00                       # Theoretical peak bandwidth in MiByte/s
system.mem_ctrls.dram.busUtil                    8.42                       # Data bus utilization in percentage
system.mem_ctrls.dram.busUtilRead                4.26                       # Data bus utilization in percentage for reads
system.mem_ctrls.dram.busUtilWrite               4.16                       # Data bus utilization in percentage for writes
system.mem_ctrls.dram.pageHitRate               92.69                       # Row buffer hit rate, read and write combined
system.mem_ctrls.dram.power_state.pwrStateResidencyTicks::UNDEFINED 174763479500                       # Cumulative time (in ticks) in various power states
system.mem_ctrls.dram.rank0.actEnergy       768106920                       # Energy for activate commands per rank (pJ)
system.mem_ctrls.dram.rank0.preEnergy       408258510                       # Energy for precharge commands per rank (pJ)
system.mem_ctrls.dram.rank0.readEnergy     5312788320                       # Energy for read commands per rank (pJ)
system.mem_ctrls.dram.rank0.writeEnergy    3797289000                       # Energy for write commands per rank (pJ)
system.mem_ctrls.dram.rank0.refreshEnergy 13795594800.000002                       # Energy for refresh commands per rank (pJ)
system.mem_ctrls.dram.rank0.actBackEnergy  40100502630                       # Energy for active background per rank (pJ)
system.mem_ctrls.dram.rank0.preBackEnergy  33340332000                       # Energy for precharge background per rank (pJ)
system.mem_ctrls.dram.rank0.actPowerDownEnergy            0                       # Energy for active power-down per rank (pJ)
system.mem_ctrls.dram.rank0.prePowerDownEnergy            0                       # Energy for precharge power-down per rank (pJ)
system.mem_ctrls.dram.rank0.selfRefreshEnergy            0                       # Energy for self refresh per rank (pJ)
system.mem_ctrls.dram.rank0.totalEnergy   97522872180                       # Total energy per rank (pJ)
system.mem_ctrls.dram.rank0.averagePower   558.027755                       # Core power per rank (mW)
system.mem_ctrls.dram.rank0.totalIdleTime            0                       # Total Idle time Per DRAM Rank
system.mem_ctrls.dram.rank0.pwrStateTime::IDLE  85308435500                       # Time in different power states
system.mem_ctrls.dram.rank0.pwrStateTime::REF   5835700000                       # Time in different power states
system.mem_ctrls.dram.rank0.pwrStateTime::SREF            0                       # Time in different power states
system.mem_ctrls.dram.rank0.pwrStateTime::PRE_PDN            0                       # Time in different power states
system.mem_ctrls.dram.rank0.pwrStateTime::ACT  83619344000                       # Time in different power states
system.mem_ctrls.dram.rank0.pwrStateTime::ACT_PDN            0                       # Time in different power states
system.mem_ctrls.dram.rank1.actEnergy       767450040                       # Energy for activate commands per rank (pJ)
system.mem_ctrls.dram.rank1.preEnergy       407905575                       # Energy for precharge commands per rank (pJ)
system.mem_ctrls.dram.rank1.readEnergy     5312317080                       # Energy for read commands per rank (pJ)
system.mem_ctrls.dram.rank1.writeEnergy    3796401600                       # Energy for write commands per rank (pJ)
system.mem_ctrls.dram.rank1.refreshEnergy 13795594800.000002                       # Energy for refresh commands per rank (pJ)
system.mem_ctrls.dram.rank1.actBackEnergy  40131123030                       # Energy for active background per rank (pJ)
system.mem_ctrls.dram.rank1.preBackEnergy  33314546400                       # Energy for precharge background per rank (pJ)
system.mem_ctrls.dram.rank1.actPowerDownEnergy            0                       # Energy for active power-down per rank (pJ)
system.mem_ctrls.dram.rank1.prePowerDownEnergy            0                       # Energy for precharge power-down per rank (pJ)
system.mem_ctrls.dram.rank1.selfRefreshEnergy            0                       # Energy for self refresh per rank (pJ)
system.mem_ctrls.dram.rank1.totalEnergy   97525338525                       # Total energy per rank (pJ)
system.mem_ctrls.dram.rank1.averagePower   558.041868                       # Core power per rank (mW)
system.mem_ctrls.dram.rank1.totalIdleTime            0                       # Total Idle time Per DRAM Rank
system.mem_ctrls.dram.rank1.pwrStateTime::IDLE  85240663750                       # Time in different power states
system.mem_ctrls.dram.rank1.pwrStateTime::REF   5835700000                       # Time in different power states
system.mem_ctrls.dram.rank1.pwrStateTime::SREF            0                       # Time in different power states
system.mem_ctrls.dram.rank1.pwrStateTime::PRE_PDN            0                       # Time in different power states
system.mem_ctrls.dram.rank1.pwrStateTime::ACT  83687115750                       # Time in different power states
system.mem_ctrls.dram.rank1.pwrStateTime::ACT_PDN            0                       # Time in different power states
system.mem_ctrls.power_state.pwrStateResidencyTicks::UNDEFINED 174763479500                       # Cumulative time (in ticks) in various power states
system.membus.trans_dist::ReadResp                607                       # Transaction distribution
system.membus.trans_dist::WritebackDirty      1454751                       # Transaction distribution
system.membus.trans_dist::CleanEvict              246                       # Transaction distribution
system.membus.trans_dist::ReadExReq           1487503                       # Transaction distribution
system.membus.trans_dist::ReadExResp          1487503                       # Transaction distribution
system.membus.trans_dist::ReadSharedReq           607                       # Transaction distribution
system.membus.pkt_count_system.l2.mem_side_port::system.mem_ctrls.port      4431217                       # Packet count per connected requestor and responder (bytes)
system.membus.pkt_count::total                4431217                       # Packet count per connected requestor and responder (bytes)
system.membus.pkt_size_system.l2.mem_side_port::system.mem_ctrls.port    188343104                       # Cumulative packet size per connected requestor and responder (bytes)
system.membus.pkt_size::total               188343104                       # Cumulative packet size per connected requestor and responder (bytes)
system.membus.snoops                                0                       # Total snoops (count)
system.membus.snoopTraffic                          0                       # Total snoop traffic (bytes)
system.membus.snoop_fanout::samples           1488110                       # Request fanout histogram
system.membus.snoop_fanout::mean                    0                       # Request fanout histogram
system.membus.snoop_fanout::stdev                   0                       # Request fanout histogram
system.membus.snoop_fanout::underflows              0      0.00%      0.00% # Request fanout histogram
system.membus.snoop_fanout::0                 1488110    100.00%    100.00% # Request fanout histogram
system.membus.snoop_fanout::1                       0      0.00%    100.00% # Request fanout histogram
system.membus.snoop_fanout::overflows               0      0.00%    100.00% # Request fanout histogram
system.membus.snoop_fanout::min_value               0                       # Request fanout histogram
system.membus.snoop_fanout::max_value               0                       # Request fanout histogram
system.membus.snoop_fanout::total             1488110                       # Request fanout histogram
system.membus.power_state.pwrStateResidencyTicks::UNDEFINED 174763479500                       # Cumulative time (in ticks) in various power states
system.membus.reqLayer0.occupancy          9352525500                       # Layer occupancy (ticks)
system.membus.reqLayer0.utilization               5.4                       # Layer utilization (%)
system.membus.respLayer1.occupancy         7840229000                       # Layer occupancy (ticks)
system.membus.respLayer1.utilization              4.5                       # Layer utilization (%)
system.tol2bus.trans_dist::ReadResp               694                       # Transaction distribution
system.tol2bus.trans_dist::WritebackDirty      2941248                       # Transaction distribution
system.tol2bus.trans_dist::WritebackClean          223                       # Transaction distribution
system.tol2bus.trans_dist::CleanEvict             700                       # Transaction distribution
system.tol2bus.trans_dist::ReadExReq          1487503                       # Transaction distribution
system.tol2bus.trans_dist::ReadExResp         1487503                       # Transaction distribution
system.tol2bus.trans_dist::ReadCleanReq           567                       # Transaction distribution
system.tol2bus.trans_dist::ReadSharedReq          127                       # Transaction distribution
system.tol2bus.pkt_count_system.cpu.icache.mem_side_port::system.l2.cpu_side_port         1357                       # Packet count per connected requestor and responder (bytes)
system.tol2bus.pkt_count_system.cpu.dcache.mem_side_port::system.l2.cpu_side_port      4461866                       # Packet count per connected requestor and responder (bytes)
system.tol2bus.pkt_count::total               4463223                       # Packet count per connected requestor and responder (bytes)
system.tol2bus.pkt_size_system.cpu.icache.mem_side_port::system.l2.cpu_side_port        50560                       # Cumulative packet size per connected requestor and responder (bytes)
system.tol2bus.pkt_size_system.cpu.dcache.mem_side_port::system.l2.cpu_side_port    190344128                       # Cumulative packet size per connected requestor and responder (bytes)
system.tol2bus.pkt_size::total              190394688                       # Cumulative packet size per connected requestor and responder (bytes)
system.tol2bus.snoops                         1455342                       # Total snoops (count)
system.tol2bus.snoopTraffic                  93104064                       # Total snoop traffic (bytes)
system.tol2bus.snoop_fanout::samples          2943539                       # Request fanout histogram
system.tol2bus.snoop_fanout::mean            0.000127                       # Request fanout histogram
system.tol2bus.snoop_fanout::stdev           0.011316                       # Request fanout histogram
system.tol2bus.snoop_fanout::underflows             0      0.00%      0.00% # Request fanout histogram
system.tol2bus.snoop_fanout::0                2943165     99.99%     99.99% # Request fanout histogram
system.tol2bus.snoop_fanout::1                    373      0.01%    100.00% # Request fanout histogram
system.tol2bus.snoop_fanout::2                      1      0.00%    100.00% # Request fanout histogram
system.tol2bus.snoop_fanout::overflows              0      0.00%    100.00% # Request fanout histogram
system.tol2bus.snoop_fanout::min_value              0                       # Request fanout histogram
system.tol2bus.snoop_fanout::max_value              2                       # Request fanout histogram
system.tol2bus.snoop_fanout::total            2943539                       # Request fanout histogram
system.tol2bus.power_state.pwrStateResidencyTicks::UNDEFINED 174763479500                       # Cumulative time (in ticks) in various power states
system.tol2bus.reqLayer0.occupancy         2974233000                       # Layer occupancy (ticks)
system.tol2bus.reqLayer0.utilization              1.7                       # Layer utilization (%)
system.tol2bus.respLayer0.occupancy            850500                       # Layer occupancy (ticks)
system.tol2bus.respLayer0.utilization             0.0                       # Layer utilization (%)
system.tol2bus.respLayer1.occupancy        2231445998                       # Layer occupancy (ticks)
system.tol2bus.respLayer1.utilization             1.3                       # Layer utilization (%)
system.voltage_domain.voltage                       1                       # Voltage in Volts

---------- End Simulation Statistics   ----------
