
---------- Begin Simulation Statistics ----------
final_tick                                   56264785                       # Number of ticks from beginning of simulation (restored from checkpoints and never reset)
host_inst_rate                                 111508                       # Simulator instruction rate (inst/s)
host_mem_usage                                 671872                       # Number of bytes of host memory used
host_op_rate                                   125591                       # Simulator op (including micro ops) rate (op/s)
host_seconds                                     0.14                       # Real time elapsed on the host
host_tick_rate                              414022811                       # Simulator tick rate (ticks/s)
sim_freq                                 1000000000000                       # Frequency of simulated ticks
sim_insts                                       15136                       # Number of instructions simulated
sim_ops                                         17064                       # Number of ops (including micro ops) simulated
sim_seconds                                  0.000056                       # Number of seconds simulated
sim_ticks                                    56264785                       # Number of ticks simulated
system.cpu.committedInsts                       15136                       # Number of instructions committed
system.cpu.committedOps                         17064                       # Number of ops (including micro ops) committed
system.cpu.cpi                               5.573137                       # CPI: cycles per instruction
system.cpu.discardedOps                          2831                       # Number of ops (including micro ops) which were discarded before commit
system.cpu.idleCycles                           57896                       # Total number of cycles that the object has spent stopped
system.cpu.ipc                               0.179432                       # IPC: instructions per cycle
system.cpu.numCycles                            84355                       # number of cpu cycles simulated
system.cpu.numFetchSuspends                         0                       # Number of times Execute suspended instruction fetching
system.cpu.numWorkItemsCompleted                    0                       # number of work items this cpu completed
system.cpu.numWorkItemsStarted                      0                       # number of work items this cpu started
system.cpu.op_class_0::No_OpClass                   0      0.00%      0.00% # Class of committed instruction
system.cpu.op_class_0::IntAlu                   11808     69.20%     69.20% # Class of committed instruction
system.cpu.op_class_0::IntMult                    125      0.73%     69.93% # Class of committed instruction
system.cpu.op_class_0::IntDiv                       0      0.00%     69.93% # Class of committed instruction
system.cpu.op_class_0::FloatAdd                     0      0.00%     69.93% # Class of committed instruction
system.cpu.op_class_0::FloatCmp                     0      0.00%     69.93% # Class of committed instruction
system.cpu.op_class_0::FloatCvt                     0      0.00%     69.93% # Class of committed instruction
system.cpu.op_class_0::FloatMult                    0      0.00%     69.93% # Class of committed instruction
system.cpu.op_class_0::FloatMultAcc                 0      0.00%     69.93% # Class of committed instruction
system.cpu.op_class_0::FloatDiv                     0      0.00%     69.93% # Class of committed instruction
system.cpu.op_class_0::FloatMisc                    0      0.00%     69.93% # Class of committed instruction
system.cpu.op_class_0::FloatSqrt                    0      0.00%     69.93% # Class of committed instruction
system.cpu.op_class_0::SimdAdd                      0      0.00%     69.93% # Class of committed instruction
system.cpu.op_class_0::SimdAddAcc                   0      0.00%     69.93% # Class of committed instruction
system.cpu.op_class_0::SimdAlu                      0      0.00%     69.93% # Class of committed instruction
system.cpu.op_class_0::SimdCmp                      0      0.00%     69.93% # Class of committed instruction
system.cpu.op_class_0::SimdCvt                      0      0.00%     69.93% # Class of committed instruction
system.cpu.op_class_0::SimdMisc                     0      0.00%     69.93% # Class of committed instruction
system.cpu.op_class_0::SimdMult                     0      0.00%     69.93% # Class of committed instruction
system.cpu.op_class_0::SimdMultAcc                  0      0.00%     69.93% # Class of committed instruction
system.cpu.op_class_0::SimdShift                    0      0.00%     69.93% # Class of committed instruction
system.cpu.op_class_0::SimdShiftAcc                 0      0.00%     69.93% # Class of committed instruction
system.cpu.op_class_0::SimdDiv                      0      0.00%     69.93% # Class of committed instruction
system.cpu.op_class_0::SimdSqrt                     0      0.00%     69.93% # Class of committed instruction
system.cpu.op_class_0::SimdFloatAdd                 0      0.00%     69.93% # Class of committed instruction
system.cpu.op_class_0::SimdFloatAlu                 0      0.00%     69.93% # Class of committed instruction
system.cpu.op_class_0::SimdFloatCmp                 0      0.00%     69.93% # Class of committed instruction
system.cpu.op_class_0::SimdFloatCvt                 2      0.01%     69.94% # Class of committed instruction
system.cpu.op_class_0::SimdFloatDiv                 0      0.00%     69.94% # Class of committed instruction
system.cpu.op_class_0::SimdFloatMisc               27      0.16%     70.10% # Class of committed instruction
system.cpu.op_class_0::SimdFloatMult                0      0.00%     70.10% # Class of committed instruction
system.cpu.op_class_0::SimdFloatMultAcc             0      0.00%     70.10% # Class of committed instruction
system.cpu.op_class_0::SimdFloatSqrt                0      0.00%     70.10% # Class of committed instruction
system.cpu.op_class_0::SimdReduceAdd                0      0.00%     70.10% # Class of committed instruction
system.cpu.op_class_0::SimdReduceAlu                0      0.00%     70.10% # Class of committed instruction
system.cpu.op_class_0::SimdReduceCmp                0      0.00%     70.10% # Class of committed instruction
system.cpu.op_class_0::SimdFloatReduceAdd            0      0.00%     70.10% # Class of committed instruction
system.cpu.op_class_0::SimdFloatReduceCmp            0      0.00%     70.10% # Class of committed instruction
system.cpu.op_class_0::SimdAes                      0      0.00%     70.10% # Class of committed instruction
system.cpu.op_class_0::SimdAesMix                   0      0.00%     70.10% # Class of committed instruction
system.cpu.op_class_0::SimdSha1Hash                 0      0.00%     70.10% # Class of committed instruction
system.cpu.op_class_0::SimdSha1Hash2                0      0.00%     70.10% # Class of committed instruction
system.cpu.op_class_0::SimdSha256Hash               0      0.00%     70.10% # Class of committed instruction
system.cpu.op_class_0::SimdSha256Hash2              0      0.00%     70.10% # Class of committed instruction
system.cpu.op_class_0::SimdShaSigma2                0      0.00%     70.10% # Class of committed instruction
system.cpu.op_class_0::SimdShaSigma3                0      0.00%     70.10% # Class of committed instruction
system.cpu.op_class_0::SimdPredAlu                  0      0.00%     70.10% # Class of committed instruction
system.cpu.op_class_0::MemRead                   2975     17.43%     87.54% # Class of committed instruction
system.cpu.op_class_0::MemWrite                  2127     12.46%    100.00% # Class of committed instruction
system.cpu.op_class_0::FloatMemRead                 0      0.00%    100.00% # Class of committed instruction
system.cpu.op_class_0::FloatMemWrite                0      0.00%    100.00% # Class of committed instruction
system.cpu.op_class_0::IprAccess                    0      0.00%    100.00% # Class of committed instruction
system.cpu.op_class_0::InstPrefetch                 0      0.00%    100.00% # Class of committed instruction
system.cpu.op_class_0::total                    17064                       # Class of committed instruction
system.cpu.tickCycles                           26459                       # Number of cycles that the object actually ticked
system.cpu.workload.numSyscalls                    12                       # Number of system calls
system.membus.snoop_filter.hit_multi_requests            0                       # Number of requests hitting in the snoop filter with multiple (>1) holders of the requested data.
system.membus.snoop_filter.hit_multi_snoops            0                       # Number of snoops hitting in the snoop filter with multiple (>1) holders of the requested data.
system.membus.snoop_filter.hit_single_requests            0                       # Number of requests hitting in the snoop filter with a single holder of the requested data.
system.membus.snoop_filter.hit_single_snoops            0                       # Number of snoops hitting in the snoop filter with a single holder of the requested data.
system.membus.snoop_filter.tot_requests           500                       # Total number of requests made to the snoop filter.
system.membus.snoop_filter.tot_snoops               0                       # Total number of snoops made to the snoop filter.
system.tol2bus.snoop_filter.hit_multi_requests            0                       # Number of requests hitting in the snoop filter with multiple (>1) holders of the requested data.
system.tol2bus.snoop_filter.hit_multi_snoops            0                       # Number of snoops hitting in the snoop filter with multiple (>1) holders of the requested data.
system.tol2bus.snoop_filter.hit_single_requests           29                       # Number of requests hitting in the snoop filter with a single holder of the requested data.
system.tol2bus.snoop_filter.hit_single_snoops            0                       # Number of snoops hitting in the snoop filter with a single holder of the requested data.
system.tol2bus.snoop_filter.tot_requests          529                       # Total number of requests made to the snoop filter.
system.tol2bus.snoop_filter.tot_snoops              0                       # Total number of snoops made to the snoop filter.
system.clk_domain.clock                          1000                       # Clock period in ticks
system.cpu.branchPred.lookups                    4792                       # Number of BP lookups
system.cpu.branchPred.condPredicted              3098                       # Number of conditional branches predicted
system.cpu.branchPred.condIncorrect               859                       # Number of conditional branches incorrect
system.cpu.branchPred.BTBLookups                 2453                       # Number of BTB lookups
system.cpu.branchPred.BTBHits                    1077                       # Number of BTB hits
system.cpu.branchPred.BTBHitPct             43.905422                       # BTB Hit Percentage
system.cpu.branchPred.RASUsed                     400                       # Number of times the RAS was used to get a target.
system.cpu.branchPred.RASIncorrect                  1                       # Number of incorrect RAS predictions.
system.cpu.branchPred.indirectLookups             153                       # Number of indirect predictor lookups.
system.cpu.branchPred.indirectHits                 15                       # Number of indirect target hits.
system.cpu.branchPred.indirectMisses              138                       # Number of indirect misses.
system.cpu.branchPred.indirectMispredicted           64                       # Number of mispredicted indirect branches.
system.cpu.dcache.demand_hits::.cpu.data         5178                       # number of demand (read+write) hits
system.cpu.dcache.demand_hits::total             5178                       # number of demand (read+write) hits
system.cpu.dcache.overall_hits::.cpu.data         5235                       # number of overall hits
system.cpu.dcache.overall_hits::total            5235                       # number of overall hits
system.cpu.dcache.demand_misses::.cpu.data          193                       # number of demand (read+write) misses
system.cpu.dcache.demand_misses::total            193                       # number of demand (read+write) misses
system.cpu.dcache.overall_misses::.cpu.data          212                       # number of overall misses
system.cpu.dcache.overall_misses::total           212                       # number of overall misses
system.cpu.dcache.demand_miss_latency::.cpu.data     17466729                       # number of demand (read+write) miss cycles
system.cpu.dcache.demand_miss_latency::total     17466729                       # number of demand (read+write) miss cycles
system.cpu.dcache.overall_miss_latency::.cpu.data     17466729                       # number of overall miss cycles
system.cpu.dcache.overall_miss_latency::total     17466729                       # number of overall miss cycles
system.cpu.dcache.demand_accesses::.cpu.data         5371                       # number of demand (read+write) accesses
system.cpu.dcache.demand_accesses::total         5371                       # number of demand (read+write) accesses
system.cpu.dcache.overall_accesses::.cpu.data         5447                       # number of overall (read+write) accesses
system.cpu.dcache.overall_accesses::total         5447                       # number of overall (read+write) accesses
system.cpu.dcache.demand_miss_rate::.cpu.data     0.035934                       # miss rate for demand accesses
system.cpu.dcache.demand_miss_rate::total     0.035934                       # miss rate for demand accesses
system.cpu.dcache.overall_miss_rate::.cpu.data     0.038921                       # miss rate for overall accesses
system.cpu.dcache.overall_miss_rate::total     0.038921                       # miss rate for overall accesses
system.cpu.dcache.demand_avg_miss_latency::.cpu.data 90501.186528                       # average overall miss latency
system.cpu.dcache.demand_avg_miss_latency::total 90501.186528                       # average overall miss latency
system.cpu.dcache.overall_avg_miss_latency::.cpu.data 82390.231132                       # average overall miss latency
system.cpu.dcache.overall_avg_miss_latency::total 82390.231132                       # average overall miss latency
system.cpu.dcache.blocked_cycles::no_mshrs            0                       # number of cycles access was blocked
system.cpu.dcache.blocked_cycles::no_targets            0                       # number of cycles access was blocked
system.cpu.dcache.blocked::no_mshrs                 0                       # number of cycles access was blocked
system.cpu.dcache.blocked::no_targets               0                       # number of cycles access was blocked
system.cpu.dcache.avg_blocked_cycles::no_mshrs          nan                       # average number of cycles each access was blocked
system.cpu.dcache.avg_blocked_cycles::no_targets          nan                       # average number of cycles each access was blocked
system.cpu.dcache.demand_mshr_hits::.cpu.data           41                       # number of demand (read+write) MSHR hits
system.cpu.dcache.demand_mshr_hits::total           41                       # number of demand (read+write) MSHR hits
system.cpu.dcache.overall_mshr_hits::.cpu.data           41                       # number of overall MSHR hits
system.cpu.dcache.overall_mshr_hits::total           41                       # number of overall MSHR hits
system.cpu.dcache.demand_mshr_misses::.cpu.data          152                       # number of demand (read+write) MSHR misses
system.cpu.dcache.demand_mshr_misses::total          152                       # number of demand (read+write) MSHR misses
system.cpu.dcache.overall_mshr_misses::.cpu.data          163                       # number of overall MSHR misses
system.cpu.dcache.overall_mshr_misses::total          163                       # number of overall MSHR misses
system.cpu.dcache.demand_mshr_miss_latency::.cpu.data     13713520                       # number of demand (read+write) MSHR miss cycles
system.cpu.dcache.demand_mshr_miss_latency::total     13713520                       # number of demand (read+write) MSHR miss cycles
system.cpu.dcache.overall_mshr_miss_latency::.cpu.data     14788724                       # number of overall MSHR miss cycles
system.cpu.dcache.overall_mshr_miss_latency::total     14788724                       # number of overall MSHR miss cycles
system.cpu.dcache.demand_mshr_miss_rate::.cpu.data     0.028300                       # mshr miss rate for demand accesses
system.cpu.dcache.demand_mshr_miss_rate::total     0.028300                       # mshr miss rate for demand accesses
system.cpu.dcache.overall_mshr_miss_rate::.cpu.data     0.029925                       # mshr miss rate for overall accesses
system.cpu.dcache.overall_mshr_miss_rate::total     0.029925                       # mshr miss rate for overall accesses
system.cpu.dcache.demand_avg_mshr_miss_latency::.cpu.data 90220.526316                       # average overall mshr miss latency
system.cpu.dcache.demand_avg_mshr_miss_latency::total 90220.526316                       # average overall mshr miss latency
system.cpu.dcache.overall_avg_mshr_miss_latency::.cpu.data 90728.368098                       # average overall mshr miss latency
system.cpu.dcache.overall_avg_mshr_miss_latency::total 90728.368098                       # average overall mshr miss latency
system.cpu.dcache.replacements                      0                       # number of replacements
system.cpu.dcache.ReadReq_hits::.cpu.data         3200                       # number of ReadReq hits
system.cpu.dcache.ReadReq_hits::total            3200                       # number of ReadReq hits
system.cpu.dcache.ReadReq_misses::.cpu.data          114                       # number of ReadReq misses
system.cpu.dcache.ReadReq_misses::total           114                       # number of ReadReq misses
system.cpu.dcache.ReadReq_miss_latency::.cpu.data     10007668                       # number of ReadReq miss cycles
system.cpu.dcache.ReadReq_miss_latency::total     10007668                       # number of ReadReq miss cycles
system.cpu.dcache.ReadReq_accesses::.cpu.data         3314                       # number of ReadReq accesses(hits+misses)
system.cpu.dcache.ReadReq_accesses::total         3314                       # number of ReadReq accesses(hits+misses)
system.cpu.dcache.ReadReq_miss_rate::.cpu.data     0.034400                       # miss rate for ReadReq accesses
system.cpu.dcache.ReadReq_miss_rate::total     0.034400                       # miss rate for ReadReq accesses
system.cpu.dcache.ReadReq_avg_miss_latency::.cpu.data 87786.561404                       # average ReadReq miss latency
system.cpu.dcache.ReadReq_avg_miss_latency::total 87786.561404                       # average ReadReq miss latency
system.cpu.dcache.ReadReq_mshr_hits::.cpu.data           10                       # number of ReadReq MSHR hits
system.cpu.dcache.ReadReq_mshr_hits::total           10                       # number of ReadReq MSHR hits
system.cpu.dcache.ReadReq_mshr_misses::.cpu.data          104                       # number of ReadReq MSHR misses
system.cpu.dcache.ReadReq_mshr_misses::total          104                       # number of ReadReq MSHR misses
system.cpu.dcache.ReadReq_mshr_miss_latency::.cpu.data      9118557                       # number of ReadReq MSHR miss cycles
system.cpu.dcache.ReadReq_mshr_miss_latency::total      9118557                       # number of ReadReq MSHR miss cycles
system.cpu.dcache.ReadReq_mshr_miss_rate::.cpu.data     0.031382                       # mshr miss rate for ReadReq accesses
system.cpu.dcache.ReadReq_mshr_miss_rate::total     0.031382                       # mshr miss rate for ReadReq accesses
system.cpu.dcache.ReadReq_avg_mshr_miss_latency::.cpu.data 87678.432692                       # average ReadReq mshr miss latency
system.cpu.dcache.ReadReq_avg_mshr_miss_latency::total 87678.432692                       # average ReadReq mshr miss latency
system.cpu.dcache.WriteReq_hits::.cpu.data         1978                       # number of WriteReq hits
system.cpu.dcache.WriteReq_hits::total           1978                       # number of WriteReq hits
system.cpu.dcache.WriteReq_misses::.cpu.data           79                       # number of WriteReq misses
system.cpu.dcache.WriteReq_misses::total           79                       # number of WriteReq misses
system.cpu.dcache.WriteReq_miss_latency::.cpu.data      7459061                       # number of WriteReq miss cycles
system.cpu.dcache.WriteReq_miss_latency::total      7459061                       # number of WriteReq miss cycles
system.cpu.dcache.WriteReq_accesses::.cpu.data         2057                       # number of WriteReq accesses(hits+misses)
system.cpu.dcache.WriteReq_accesses::total         2057                       # number of WriteReq accesses(hits+misses)
system.cpu.dcache.WriteReq_miss_rate::.cpu.data     0.038405                       # miss rate for WriteReq accesses
system.cpu.dcache.WriteReq_miss_rate::total     0.038405                       # miss rate for WriteReq accesses
system.cpu.dcache.WriteReq_avg_miss_latency::.cpu.data 94418.493671                       # average WriteReq miss latency
system.cpu.dcache.WriteReq_avg_miss_latency::total 94418.493671                       # average WriteReq miss latency
system.cpu.dcache.WriteReq_mshr_hits::.cpu.data           31                       # number of WriteReq MSHR hits
system.cpu.dcache.WriteReq_mshr_hits::total           31                       # number of WriteReq MSHR hits
system.cpu.dcache.WriteReq_mshr_misses::.cpu.data           48                       # number of WriteReq MSHR misses
system.cpu.dcache.WriteReq_mshr_misses::total           48                       # number of WriteReq MSHR misses
system.cpu.dcache.WriteReq_mshr_miss_latency::.cpu.data      4594963                       # number of WriteReq MSHR miss cycles
system.cpu.dcache.WriteReq_mshr_miss_latency::total      4594963                       # number of WriteReq MSHR miss cycles
system.cpu.dcache.WriteReq_mshr_miss_rate::.cpu.data     0.023335                       # mshr miss rate for WriteReq accesses
system.cpu.dcache.WriteReq_mshr_miss_rate::total     0.023335                       # mshr miss rate for WriteReq accesses
system.cpu.dcache.WriteReq_avg_mshr_miss_latency::.cpu.data 95728.395833                       # average WriteReq mshr miss latency
system.cpu.dcache.WriteReq_avg_mshr_miss_latency::total 95728.395833                       # average WriteReq mshr miss latency
system.cpu.dcache.SoftPFReq_hits::.cpu.data           57                       # number of SoftPFReq hits
system.cpu.dcache.SoftPFReq_hits::total            57                       # number of SoftPFReq hits
system.cpu.dcache.SoftPFReq_misses::.cpu.data           19                       # number of SoftPFReq misses
system.cpu.dcache.SoftPFReq_misses::total           19                       # number of SoftPFReq misses
system.cpu.dcache.SoftPFReq_accesses::.cpu.data           76                       # number of SoftPFReq accesses(hits+misses)
system.cpu.dcache.SoftPFReq_accesses::total           76                       # number of SoftPFReq accesses(hits+misses)
system.cpu.dcache.SoftPFReq_miss_rate::.cpu.data     0.250000                       # miss rate for SoftPFReq accesses
system.cpu.dcache.SoftPFReq_miss_rate::total     0.250000                       # miss rate for SoftPFReq accesses
system.cpu.dcache.SoftPFReq_mshr_misses::.cpu.data           11                       # number of SoftPFReq MSHR misses
system.cpu.dcache.SoftPFReq_mshr_misses::total           11                       # number of SoftPFReq MSHR misses
system.cpu.dcache.SoftPFReq_mshr_miss_latency::.cpu.data      1075204                       # number of SoftPFReq MSHR miss cycles
system.cpu.dcache.SoftPFReq_mshr_miss_latency::total      1075204                       # number of SoftPFReq MSHR miss cycles
system.cpu.dcache.SoftPFReq_mshr_miss_rate::.cpu.data     0.144737                       # mshr miss rate for SoftPFReq accesses
system.cpu.dcache.SoftPFReq_mshr_miss_rate::total     0.144737                       # mshr miss rate for SoftPFReq accesses
system.cpu.dcache.SoftPFReq_avg_mshr_miss_latency::.cpu.data 97745.818182                       # average SoftPFReq mshr miss latency
system.cpu.dcache.SoftPFReq_avg_mshr_miss_latency::total 97745.818182                       # average SoftPFReq mshr miss latency
system.cpu.dcache.LoadLockedReq_hits::.cpu.data           20                       # number of LoadLockedReq hits
system.cpu.dcache.LoadLockedReq_hits::total           20                       # number of LoadLockedReq hits
system.cpu.dcache.LoadLockedReq_accesses::.cpu.data           20                       # number of LoadLockedReq accesses(hits+misses)
system.cpu.dcache.LoadLockedReq_accesses::total           20                       # number of LoadLockedReq accesses(hits+misses)
system.cpu.dcache.StoreCondReq_hits::.cpu.data           20                       # number of StoreCondReq hits
system.cpu.dcache.StoreCondReq_hits::total           20                       # number of StoreCondReq hits
system.cpu.dcache.StoreCondReq_accesses::.cpu.data           20                       # number of StoreCondReq accesses(hits+misses)
system.cpu.dcache.StoreCondReq_accesses::total           20                       # number of StoreCondReq accesses(hits+misses)
system.cpu.dcache.power_state.pwrStateResidencyTicks::UNDEFINED     56264785                       # Cumulative time (in ticks) in various power states
system.cpu.dcache.tags.tagsinuse            91.799657                       # Cycle average of tags in use
system.cpu.dcache.tags.total_refs                5438                       # Total number of references to valid blocks.
system.cpu.dcache.tags.sampled_refs               163                       # Sample count of references to valid blocks.
system.cpu.dcache.tags.avg_refs             33.361963                       # Average number of references to valid blocks.
system.cpu.dcache.tags.warmup_cycle            203435                       # Cycle when the warmup percentage was hit.
system.cpu.dcache.tags.occ_blocks::.cpu.data    91.799657                       # Average occupied blocks per requestor
system.cpu.dcache.tags.occ_percent::.cpu.data     0.089648                       # Average percentage of cache occupancy
system.cpu.dcache.tags.occ_percent::total     0.089648                       # Average percentage of cache occupancy
system.cpu.dcache.tags.occ_task_id_blocks::1024          163                       # Occupied blocks per task id
system.cpu.dcache.tags.age_task_id_blocks_1024::0           30                       # Occupied blocks per task id
system.cpu.dcache.tags.age_task_id_blocks_1024::1          133                       # Occupied blocks per task id
system.cpu.dcache.tags.occ_task_id_percent::1024     0.159180                       # Percentage of cache occupancy per task id
system.cpu.dcache.tags.tag_accesses             44059                       # Number of tag accesses
system.cpu.dcache.tags.data_accesses            44059                       # Number of data accesses
system.cpu.dcache.tags.power_state.pwrStateResidencyTicks::UNDEFINED     56264785                       # Cumulative time (in ticks) in various power states
system.cpu.dtb.instHits                             0                       # ITB inst hits
system.cpu.dtb.instMisses                           0                       # ITB inst misses
system.cpu.dtb.readHits                             0                       # DTB read hits
system.cpu.dtb.readMisses                           0                       # DTB read misses
system.cpu.dtb.writeHits                            0                       # DTB write hits
system.cpu.dtb.writeMisses                          0                       # DTB write misses
system.cpu.dtb.inserts                              0                       # Number of times an entry is inserted into the TLB
system.cpu.dtb.flushTlb                             0                       # Number of times complete TLB was flushed
system.cpu.dtb.flushTlbMva                          0                       # Number of times TLB was flushed by MVA
system.cpu.dtb.flushTlbMvaAsid                      0                       # Number of times TLB was flushed by MVA & ASID
system.cpu.dtb.flushTlbAsid                         0                       # Number of times TLB was flushed by ASID
system.cpu.dtb.flushedEntries                       0                       # Number of entries that have been flushed from TLB
system.cpu.dtb.alignFaults                          0                       # Number of TLB faults due to alignment restrictions
system.cpu.dtb.prefetchFaults                       0                       # Number of TLB faults due to prefetch
system.cpu.dtb.domainFaults                         0                       # Number of TLB faults due to domain restrictions
system.cpu.dtb.permsFaults                          0                       # Number of TLB faults due to permissions restrictions
system.cpu.dtb.readAccesses                         0                       # DTB read accesses
system.cpu.dtb.writeAccesses                        0                       # DTB write accesses
system.cpu.dtb.instAccesses                         0                       # ITB inst accesses
system.cpu.dtb.hits                                 0                       # Total TLB (inst and data) hits
system.cpu.dtb.misses                               0                       # Total TLB (inst and data) misses
system.cpu.dtb.accesses                             0                       # Total TLB (inst and data) accesses
system.cpu.dtb.stage2_mmu.stage2_tlb.instHits            0                       # ITB inst hits
system.cpu.dtb.stage2_mmu.stage2_tlb.instMisses            0                       # ITB inst misses
system.cpu.dtb.stage2_mmu.stage2_tlb.readHits            0                       # DTB read hits
system.cpu.dtb.stage2_mmu.stage2_tlb.readMisses            0                       # DTB read misses
system.cpu.dtb.stage2_mmu.stage2_tlb.writeHits            0                       # DTB write hits
system.cpu.dtb.stage2_mmu.stage2_tlb.writeMisses            0                       # DTB write misses
system.cpu.dtb.stage2_mmu.stage2_tlb.inserts            0                       # Number of times an entry is inserted into the TLB
system.cpu.dtb.stage2_mmu.stage2_tlb.flushTlb            0                       # Number of times complete TLB was flushed
system.cpu.dtb.stage2_mmu.stage2_tlb.flushTlbMva            0                       # Number of times TLB was flushed by MVA
system.cpu.dtb.stage2_mmu.stage2_tlb.flushTlbMvaAsid            0                       # Number of times TLB was flushed by MVA & ASID
system.cpu.dtb.stage2_mmu.stage2_tlb.flushTlbAsid            0                       # Number of times TLB was flushed by ASID
system.cpu.dtb.stage2_mmu.stage2_tlb.flushedEntries            0                       # Number of entries that have been flushed from TLB
system.cpu.dtb.stage2_mmu.stage2_tlb.alignFaults            0                       # Number of TLB faults due to alignment restrictions
system.cpu.dtb.stage2_mmu.stage2_tlb.prefetchFaults            0                       # Number of TLB faults due to prefetch
system.cpu.dtb.stage2_mmu.stage2_tlb.domainFaults            0                       # Number of TLB faults due to domain restrictions
system.cpu.dtb.stage2_mmu.stage2_tlb.permsFaults            0                       # Number of TLB faults due to permissions restrictions
system.cpu.dtb.stage2_mmu.stage2_tlb.readAccesses            0                       # DTB read accesses
system.cpu.dtb.stage2_mmu.stage2_tlb.writeAccesses            0                       # DTB write accesses
system.cpu.dtb.stage2_mmu.stage2_tlb.instAccesses            0                       # ITB inst accesses
system.cpu.dtb.stage2_mmu.stage2_tlb.hits            0                       # Total TLB (inst and data) hits
system.cpu.dtb.stage2_mmu.stage2_tlb.misses            0                       # Total TLB (inst and data) misses
system.cpu.dtb.stage2_mmu.stage2_tlb.accesses            0                       # Total TLB (inst and data) accesses
system.cpu.dtb.stage2_mmu.stage2_tlb.walker.walks            0                       # Table walker walks requested
system.cpu.dtb.stage2_mmu.stage2_tlb.walker.requestOrigin_Requested::Data            0                       # Table walker requests started/completed, data/inst
system.cpu.dtb.stage2_mmu.stage2_tlb.walker.requestOrigin_Requested::Inst            0                       # Table walker requests started/completed, data/inst
system.cpu.dtb.stage2_mmu.stage2_tlb.walker.requestOrigin_Requested::total            0                       # Table walker requests started/completed, data/inst
system.cpu.dtb.stage2_mmu.stage2_tlb.walker.requestOrigin_Completed::Data            0                       # Table walker requests started/completed, data/inst
system.cpu.dtb.stage2_mmu.stage2_tlb.walker.requestOrigin_Completed::Inst            0                       # Table walker requests started/completed, data/inst
system.cpu.dtb.stage2_mmu.stage2_tlb.walker.requestOrigin_Completed::total            0                       # Table walker requests started/completed, data/inst
system.cpu.dtb.stage2_mmu.stage2_tlb.walker.requestOrigin::total            0                       # Table walker requests started/completed, data/inst
system.cpu.dtb.stage2_mmu.stage2_tlb.walker.power_state.pwrStateResidencyTicks::UNDEFINED     56264785                       # Cumulative time (in ticks) in various power states
system.cpu.dtb.walker.walks                         0                       # Table walker walks requested
system.cpu.dtb.walker.requestOrigin_Requested::Data            0                       # Table walker requests started/completed, data/inst
system.cpu.dtb.walker.requestOrigin_Requested::Inst            0                       # Table walker requests started/completed, data/inst
system.cpu.dtb.walker.requestOrigin_Requested::total            0                       # Table walker requests started/completed, data/inst
system.cpu.dtb.walker.requestOrigin_Completed::Data            0                       # Table walker requests started/completed, data/inst
system.cpu.dtb.walker.requestOrigin_Completed::Inst            0                       # Table walker requests started/completed, data/inst
system.cpu.dtb.walker.requestOrigin_Completed::total            0                       # Table walker requests started/completed, data/inst
system.cpu.dtb.walker.requestOrigin::total            0                       # Table walker requests started/completed, data/inst
system.cpu.dtb.walker.power_state.pwrStateResidencyTicks::UNDEFINED     56264785                       # Cumulative time (in ticks) in various power states
system.cpu.fetch2.intInstructions               15483                       # Number of integer instructions successfully decoded
system.cpu.fetch2.fpInstructions                    0                       # Number of floating point instructions successfully decoded
system.cpu.fetch2.vecInstructions                   0                       # Number of SIMD instructions successfully decoded
system.cpu.fetch2.loadInstructions               4199                       # Number of memory load instructions successfully decoded
system.cpu.fetch2.storeInstructions              1817                       # Number of memory store instructions successfully decoded
system.cpu.fetch2.amoInstructions                   0                       # Number of memory atomic instructions successfully decoded
system.cpu.icache.demand_hits::.cpu.inst         5137                       # number of demand (read+write) hits
system.cpu.icache.demand_hits::total             5137                       # number of demand (read+write) hits
system.cpu.icache.overall_hits::.cpu.inst         5137                       # number of overall hits
system.cpu.icache.overall_hits::total            5137                       # number of overall hits
system.cpu.icache.demand_misses::.cpu.inst          366                       # number of demand (read+write) misses
system.cpu.icache.demand_misses::total            366                       # number of demand (read+write) misses
system.cpu.icache.overall_misses::.cpu.inst          366                       # number of overall misses
system.cpu.icache.overall_misses::total           366                       # number of overall misses
system.cpu.icache.demand_miss_latency::.cpu.inst     34114382                       # number of demand (read+write) miss cycles
system.cpu.icache.demand_miss_latency::total     34114382                       # number of demand (read+write) miss cycles
system.cpu.icache.overall_miss_latency::.cpu.inst     34114382                       # number of overall miss cycles
system.cpu.icache.overall_miss_latency::total     34114382                       # number of overall miss cycles
system.cpu.icache.demand_accesses::.cpu.inst         5503                       # number of demand (read+write) accesses
system.cpu.icache.demand_accesses::total         5503                       # number of demand (read+write) accesses
system.cpu.icache.overall_accesses::.cpu.inst         5503                       # number of overall (read+write) accesses
system.cpu.icache.overall_accesses::total         5503                       # number of overall (read+write) accesses
system.cpu.icache.demand_miss_rate::.cpu.inst     0.066509                       # miss rate for demand accesses
system.cpu.icache.demand_miss_rate::total     0.066509                       # miss rate for demand accesses
system.cpu.icache.overall_miss_rate::.cpu.inst     0.066509                       # miss rate for overall accesses
system.cpu.icache.overall_miss_rate::total     0.066509                       # miss rate for overall accesses
system.cpu.icache.demand_avg_miss_latency::.cpu.inst 93208.693989                       # average overall miss latency
system.cpu.icache.demand_avg_miss_latency::total 93208.693989                       # average overall miss latency
system.cpu.icache.overall_avg_miss_latency::.cpu.inst 93208.693989                       # average overall miss latency
system.cpu.icache.overall_avg_miss_latency::total 93208.693989                       # average overall miss latency
system.cpu.icache.blocked_cycles::no_mshrs            0                       # number of cycles access was blocked
system.cpu.icache.blocked_cycles::no_targets            0                       # number of cycles access was blocked
system.cpu.icache.blocked::no_mshrs                 0                       # number of cycles access was blocked
system.cpu.icache.blocked::no_targets               0                       # number of cycles access was blocked
system.cpu.icache.avg_blocked_cycles::no_mshrs          nan                       # average number of cycles each access was blocked
system.cpu.icache.avg_blocked_cycles::no_targets          nan                       # average number of cycles each access was blocked
system.cpu.icache.demand_mshr_misses::.cpu.inst          366                       # number of demand (read+write) MSHR misses
system.cpu.icache.demand_mshr_misses::total          366                       # number of demand (read+write) MSHR misses
system.cpu.icache.overall_mshr_misses::.cpu.inst          366                       # number of overall MSHR misses
system.cpu.icache.overall_mshr_misses::total          366                       # number of overall MSHR misses
system.cpu.icache.demand_mshr_miss_latency::.cpu.inst     33626138                       # number of demand (read+write) MSHR miss cycles
system.cpu.icache.demand_mshr_miss_latency::total     33626138                       # number of demand (read+write) MSHR miss cycles
system.cpu.icache.overall_mshr_miss_latency::.cpu.inst     33626138                       # number of overall MSHR miss cycles
system.cpu.icache.overall_mshr_miss_latency::total     33626138                       # number of overall MSHR miss cycles
system.cpu.icache.demand_mshr_miss_rate::.cpu.inst     0.066509                       # mshr miss rate for demand accesses
system.cpu.icache.demand_mshr_miss_rate::total     0.066509                       # mshr miss rate for demand accesses
system.cpu.icache.overall_mshr_miss_rate::.cpu.inst     0.066509                       # mshr miss rate for overall accesses
system.cpu.icache.overall_mshr_miss_rate::total     0.066509                       # mshr miss rate for overall accesses
system.cpu.icache.demand_avg_mshr_miss_latency::.cpu.inst 91874.693989                       # average overall mshr miss latency
system.cpu.icache.demand_avg_mshr_miss_latency::total 91874.693989                       # average overall mshr miss latency
system.cpu.icache.overall_avg_mshr_miss_latency::.cpu.inst 91874.693989                       # average overall mshr miss latency
system.cpu.icache.overall_avg_mshr_miss_latency::total 91874.693989                       # average overall mshr miss latency
system.cpu.icache.replacements                      0                       # number of replacements
system.cpu.icache.ReadReq_hits::.cpu.inst         5137                       # number of ReadReq hits
system.cpu.icache.ReadReq_hits::total            5137                       # number of ReadReq hits
system.cpu.icache.ReadReq_misses::.cpu.inst          366                       # number of ReadReq misses
system.cpu.icache.ReadReq_misses::total           366                       # number of ReadReq misses
system.cpu.icache.ReadReq_miss_latency::.cpu.inst     34114382                       # number of ReadReq miss cycles
system.cpu.icache.ReadReq_miss_latency::total     34114382                       # number of ReadReq miss cycles
system.cpu.icache.ReadReq_accesses::.cpu.inst         5503                       # number of ReadReq accesses(hits+misses)
system.cpu.icache.ReadReq_accesses::total         5503                       # number of ReadReq accesses(hits+misses)
system.cpu.icache.ReadReq_miss_rate::.cpu.inst     0.066509                       # miss rate for ReadReq accesses
system.cpu.icache.ReadReq_miss_rate::total     0.066509                       # miss rate for ReadReq accesses
system.cpu.icache.ReadReq_avg_miss_latency::.cpu.inst 93208.693989                       # average ReadReq miss latency
system.cpu.icache.ReadReq_avg_miss_latency::total 93208.693989                       # average ReadReq miss latency
system.cpu.icache.ReadReq_mshr_misses::.cpu.inst          366                       # number of ReadReq MSHR misses
system.cpu.icache.ReadReq_mshr_misses::total          366                       # number of ReadReq MSHR misses
system.cpu.icache.ReadReq_mshr_miss_latency::.cpu.inst     33626138                       # number of ReadReq MSHR miss cycles
system.cpu.icache.ReadReq_mshr_miss_latency::total     33626138                       # number of ReadReq MSHR miss cycles
system.cpu.icache.ReadReq_mshr_miss_rate::.cpu.inst     0.066509                       # mshr miss rate for ReadReq accesses
system.cpu.icache.ReadReq_mshr_miss_rate::total     0.066509                       # mshr miss rate for ReadReq accesses
system.cpu.icache.ReadReq_avg_mshr_miss_latency::.cpu.inst 91874.693989                       # average ReadReq mshr miss latency
system.cpu.icache.ReadReq_avg_mshr_miss_latency::total 91874.693989                       # average ReadReq mshr miss latency
system.cpu.icache.power_state.pwrStateResidencyTicks::UNDEFINED     56264785                       # Cumulative time (in ticks) in various power states
system.cpu.icache.tags.tagsinuse           185.597739                       # Cycle average of tags in use
system.cpu.icache.tags.total_refs                5503                       # Total number of references to valid blocks.
system.cpu.icache.tags.sampled_refs               366                       # Sample count of references to valid blocks.
system.cpu.icache.tags.avg_refs             15.035519                       # Average number of references to valid blocks.
system.cpu.icache.tags.warmup_cycle             99383                       # Cycle when the warmup percentage was hit.
system.cpu.icache.tags.occ_blocks::.cpu.inst   185.597739                       # Average occupied blocks per requestor
system.cpu.icache.tags.occ_percent::.cpu.inst     0.181248                       # Average percentage of cache occupancy
system.cpu.icache.tags.occ_percent::total     0.181248                       # Average percentage of cache occupancy
system.cpu.icache.tags.occ_task_id_blocks::1024          366                       # Occupied blocks per task id
system.cpu.icache.tags.age_task_id_blocks_1024::0           68                       # Occupied blocks per task id
system.cpu.icache.tags.age_task_id_blocks_1024::1          298                       # Occupied blocks per task id
system.cpu.icache.tags.occ_task_id_percent::1024     0.357422                       # Percentage of cache occupancy per task id
system.cpu.icache.tags.tag_accesses             44390                       # Number of tag accesses
system.cpu.icache.tags.data_accesses            44390                       # Number of data accesses
system.cpu.icache.tags.power_state.pwrStateResidencyTicks::UNDEFINED     56264785                       # Cumulative time (in ticks) in various power states
system.cpu.itb.instHits                             0                       # ITB inst hits
system.cpu.itb.instMisses                           0                       # ITB inst misses
system.cpu.itb.readHits                             0                       # DTB read hits
system.cpu.itb.readMisses                           0                       # DTB read misses
system.cpu.itb.writeHits                            0                       # DTB write hits
system.cpu.itb.writeMisses                          0                       # DTB write misses
system.cpu.itb.inserts                              0                       # Number of times an entry is inserted into the TLB
system.cpu.itb.flushTlb                             0                       # Number of times complete TLB was flushed
system.cpu.itb.flushTlbMva                          0                       # Number of times TLB was flushed by MVA
system.cpu.itb.flushTlbMvaAsid                      0                       # Number of times TLB was flushed by MVA & ASID
system.cpu.itb.flushTlbAsid                         0                       # Number of times TLB was flushed by ASID
system.cpu.itb.flushedEntries                       0                       # Number of entries that have been flushed from TLB
system.cpu.itb.alignFaults                          0                       # Number of TLB faults due to alignment restrictions
system.cpu.itb.prefetchFaults                       0                       # Number of TLB faults due to prefetch
system.cpu.itb.domainFaults                         0                       # Number of TLB faults due to domain restrictions
system.cpu.itb.permsFaults                          0                       # Number of TLB faults due to permissions restrictions
system.cpu.itb.readAccesses                         0                       # DTB read accesses
system.cpu.itb.writeAccesses                        0                       # DTB write accesses
system.cpu.itb.instAccesses                         0                       # ITB inst accesses
system.cpu.itb.hits                                 0                       # Total TLB (inst and data) hits
system.cpu.itb.misses                               0                       # Total TLB (inst and data) misses
system.cpu.itb.accesses                             0                       # Total TLB (inst and data) accesses
system.cpu.itb.stage2_mmu.stage2_tlb.instHits            0                       # ITB inst hits
system.cpu.itb.stage2_mmu.stage2_tlb.instMisses            0                       # ITB inst misses
system.cpu.itb.stage2_mmu.stage2_tlb.readHits            0                       # DTB read hits
system.cpu.itb.stage2_mmu.stage2_tlb.readMisses            0                       # DTB read misses
system.cpu.itb.stage2_mmu.stage2_tlb.writeHits            0                       # DTB write hits
system.cpu.itb.stage2_mmu.stage2_tlb.writeMisses            0                       # DTB write misses
system.cpu.itb.stage2_mmu.stage2_tlb.inserts            0                       # Number of times an entry is inserted into the TLB
system.cpu.itb.stage2_mmu.stage2_tlb.flushTlb            0                       # Number of times complete TLB was flushed
system.cpu.itb.stage2_mmu.stage2_tlb.flushTlbMva            0                       # Number of times TLB was flushed by MVA
system.cpu.itb.stage2_mmu.stage2_tlb.flushTlbMvaAsid            0                       # Number of times TLB was flushed by MVA & ASID
system.cpu.itb.stage2_mmu.stage2_tlb.flushTlbAsid            0                       # Number of times TLB was flushed by ASID
system.cpu.itb.stage2_mmu.stage2_tlb.flushedEntries            0                       # Number of entries that have been flushed from TLB
system.cpu.itb.stage2_mmu.stage2_tlb.alignFaults            0                       # Number of TLB faults due to alignment restrictions
system.cpu.itb.stage2_mmu.stage2_tlb.prefetchFaults            0                       # Number of TLB faults due to prefetch
system.cpu.itb.stage2_mmu.stage2_tlb.domainFaults            0                       # Number of TLB faults due to domain restrictions
system.cpu.itb.stage2_mmu.stage2_tlb.permsFaults            0                       # Number of TLB faults due to permissions restrictions
system.cpu.itb.stage2_mmu.stage2_tlb.readAccesses            0                       # DTB read accesses
system.cpu.itb.stage2_mmu.stage2_tlb.writeAccesses            0                       # DTB write accesses
system.cpu.itb.stage2_mmu.stage2_tlb.instAccesses            0                       # ITB inst accesses
system.cpu.itb.stage2_mmu.stage2_tlb.hits            0                       # Total TLB (inst and data) hits
system.cpu.itb.stage2_mmu.stage2_tlb.misses            0                       # Total TLB (inst and data) misses
system.cpu.itb.stage2_mmu.stage2_tlb.accesses            0                       # Total TLB (inst and data) accesses
system.cpu.itb.stage2_mmu.stage2_tlb.walker.walks            0                       # Table walker walks requested
system.cpu.itb.stage2_mmu.stage2_tlb.walker.requestOrigin_Requested::Data            0                       # Table walker requests started/completed, data/inst
system.cpu.itb.stage2_mmu.stage2_tlb.walker.requestOrigin_Requested::Inst            0                       # Table walker requests started/completed, data/inst
system.cpu.itb.stage2_mmu.stage2_tlb.walker.requestOrigin_Requested::total            0                       # Table walker requests started/completed, data/inst
system.cpu.itb.stage2_mmu.stage2_tlb.walker.requestOrigin_Completed::Data            0                       # Table walker requests started/completed, data/inst
system.cpu.itb.stage2_mmu.stage2_tlb.walker.requestOrigin_Completed::Inst            0                       # Table walker requests started/completed, data/inst
system.cpu.itb.stage2_mmu.stage2_tlb.walker.requestOrigin_Completed::total            0                       # Table walker requests started/completed, data/inst
system.cpu.itb.stage2_mmu.stage2_tlb.walker.requestOrigin::total            0                       # Table walker requests started/completed, data/inst
system.cpu.itb.stage2_mmu.stage2_tlb.walker.power_state.pwrStateResidencyTicks::UNDEFINED     56264785                       # Cumulative time (in ticks) in various power states
system.cpu.itb.walker.walks                         0                       # Table walker walks requested
system.cpu.itb.walker.requestOrigin_Requested::Data            0                       # Table walker requests started/completed, data/inst
system.cpu.itb.walker.requestOrigin_Requested::Inst            0                       # Table walker requests started/completed, data/inst
system.cpu.itb.walker.requestOrigin_Requested::total            0                       # Table walker requests started/completed, data/inst
system.cpu.itb.walker.requestOrigin_Completed::Data            0                       # Table walker requests started/completed, data/inst
system.cpu.itb.walker.requestOrigin_Completed::Inst            0                       # Table walker requests started/completed, data/inst
system.cpu.itb.walker.requestOrigin_Completed::total            0                       # Table walker requests started/completed, data/inst
system.cpu.itb.walker.requestOrigin::total            0                       # Table walker requests started/completed, data/inst
system.cpu.itb.walker.power_state.pwrStateResidencyTicks::UNDEFINED     56264785                       # Cumulative time (in ticks) in various power states
system.cpu.power_state.pwrStateResidencyTicks::ON     56264785                       # Cumulative time (in ticks) in various power states
system.cpu.thread_0.numInsts                    15136                       # Number of Instructions committed
system.cpu.thread_0.numOps                      17064                       # Number of Ops committed
system.cpu.thread_0.numMemRefs                      0                       # Number of Memory References
system.cpu_clk_domain.clock                       667                       # Clock period in ticks
system.cpu_voltage_domain.voltage                   1                       # Voltage in Volts
system.l2.demand_hits::.cpu.inst                    9                       # number of demand (read+write) hits
system.l2.demand_hits::.cpu.data                   16                       # number of demand (read+write) hits
system.l2.demand_hits::total                       25                       # number of demand (read+write) hits
system.l2.overall_hits::.cpu.inst                   9                       # number of overall hits
system.l2.overall_hits::.cpu.data                  16                       # number of overall hits
system.l2.overall_hits::total                      25                       # number of overall hits
system.l2.demand_misses::.cpu.inst                357                       # number of demand (read+write) misses
system.l2.demand_misses::.cpu.data                147                       # number of demand (read+write) misses
system.l2.demand_misses::total                    504                       # number of demand (read+write) misses
system.l2.overall_misses::.cpu.inst               357                       # number of overall misses
system.l2.overall_misses::.cpu.data               147                       # number of overall misses
system.l2.overall_misses::total                   504                       # number of overall misses
system.l2.demand_miss_latency::.cpu.inst     32754369                       # number of demand (read+write) miss cycles
system.l2.demand_miss_latency::.cpu.data     14215771                       # number of demand (read+write) miss cycles
system.l2.demand_miss_latency::total         46970140                       # number of demand (read+write) miss cycles
system.l2.overall_miss_latency::.cpu.inst     32754369                       # number of overall miss cycles
system.l2.overall_miss_latency::.cpu.data     14215771                       # number of overall miss cycles
system.l2.overall_miss_latency::total        46970140                       # number of overall miss cycles
system.l2.demand_accesses::.cpu.inst              366                       # number of demand (read+write) accesses
system.l2.demand_accesses::.cpu.data              163                       # number of demand (read+write) accesses
system.l2.demand_accesses::total                  529                       # number of demand (read+write) accesses
system.l2.overall_accesses::.cpu.inst             366                       # number of overall (read+write) accesses
system.l2.overall_accesses::.cpu.data             163                       # number of overall (read+write) accesses
system.l2.overall_accesses::total                 529                       # number of overall (read+write) accesses
system.l2.demand_miss_rate::.cpu.inst        0.975410                       # miss rate for demand accesses
system.l2.demand_miss_rate::.cpu.data        0.901840                       # miss rate for demand accesses
system.l2.demand_miss_rate::total            0.952741                       # miss rate for demand accesses
system.l2.overall_miss_rate::.cpu.inst       0.975410                       # miss rate for overall accesses
system.l2.overall_miss_rate::.cpu.data       0.901840                       # miss rate for overall accesses
system.l2.overall_miss_rate::total           0.952741                       # miss rate for overall accesses
system.l2.demand_avg_miss_latency::.cpu.inst 91748.932773                       # average overall miss latency
system.l2.demand_avg_miss_latency::.cpu.data 96705.925170                       # average overall miss latency
system.l2.demand_avg_miss_latency::total 93194.722222                       # average overall miss latency
system.l2.overall_avg_miss_latency::.cpu.inst 91748.932773                       # average overall miss latency
system.l2.overall_avg_miss_latency::.cpu.data 96705.925170                       # average overall miss latency
system.l2.overall_avg_miss_latency::total 93194.722222                       # average overall miss latency
system.l2.blocked_cycles::no_mshrs                  0                       # number of cycles access was blocked
system.l2.blocked_cycles::no_targets                0                       # number of cycles access was blocked
system.l2.blocked::no_mshrs                         0                       # number of cycles access was blocked
system.l2.blocked::no_targets                       0                       # number of cycles access was blocked
system.l2.avg_blocked_cycles::no_mshrs            nan                       # average number of cycles each access was blocked
system.l2.avg_blocked_cycles::no_targets          nan                       # average number of cycles each access was blocked
system.l2.demand_mshr_hits::.cpu.inst               2                       # number of demand (read+write) MSHR hits
system.l2.demand_mshr_hits::.cpu.data               2                       # number of demand (read+write) MSHR hits
system.l2.demand_mshr_hits::total                   4                       # number of demand (read+write) MSHR hits
system.l2.overall_mshr_hits::.cpu.inst              2                       # number of overall MSHR hits
system.l2.overall_mshr_hits::.cpu.data              2                       # number of overall MSHR hits
system.l2.overall_mshr_hits::total                  4                       # number of overall MSHR hits
system.l2.demand_mshr_misses::.cpu.inst           355                       # number of demand (read+write) MSHR misses
system.l2.demand_mshr_misses::.cpu.data           145                       # number of demand (read+write) MSHR misses
system.l2.demand_mshr_misses::total               500                       # number of demand (read+write) MSHR misses
system.l2.overall_mshr_misses::.cpu.inst          355                       # number of overall MSHR misses
system.l2.overall_mshr_misses::.cpu.data          145                       # number of overall MSHR misses
system.l2.overall_mshr_misses::total              500                       # number of overall MSHR misses
system.l2.demand_mshr_miss_latency::.cpu.inst     27731405                       # number of demand (read+write) MSHR miss cycles
system.l2.demand_mshr_miss_latency::.cpu.data     12093030                       # number of demand (read+write) MSHR miss cycles
system.l2.demand_mshr_miss_latency::total     39824435                       # number of demand (read+write) MSHR miss cycles
system.l2.overall_mshr_miss_latency::.cpu.inst     27731405                       # number of overall MSHR miss cycles
system.l2.overall_mshr_miss_latency::.cpu.data     12093030                       # number of overall MSHR miss cycles
system.l2.overall_mshr_miss_latency::total     39824435                       # number of overall MSHR miss cycles
system.l2.demand_mshr_miss_rate::.cpu.inst     0.969945                       # mshr miss rate for demand accesses
system.l2.demand_mshr_miss_rate::.cpu.data     0.889571                       # mshr miss rate for demand accesses
system.l2.demand_mshr_miss_rate::total       0.945180                       # mshr miss rate for demand accesses
system.l2.overall_mshr_miss_rate::.cpu.inst     0.969945                       # mshr miss rate for overall accesses
system.l2.overall_mshr_miss_rate::.cpu.data     0.889571                       # mshr miss rate for overall accesses
system.l2.overall_mshr_miss_rate::total      0.945180                       # mshr miss rate for overall accesses
system.l2.demand_avg_mshr_miss_latency::.cpu.inst 78116.633803                       # average overall mshr miss latency
system.l2.demand_avg_mshr_miss_latency::.cpu.data 83400.206897                       # average overall mshr miss latency
system.l2.demand_avg_mshr_miss_latency::total 79648.870000                       # average overall mshr miss latency
system.l2.overall_avg_mshr_miss_latency::.cpu.inst 78116.633803                       # average overall mshr miss latency
system.l2.overall_avg_mshr_miss_latency::.cpu.data 83400.206897                       # average overall mshr miss latency
system.l2.overall_avg_mshr_miss_latency::total 79648.870000                       # average overall mshr miss latency
system.l2.replacements                              0                       # number of replacements
system.l2.ReadExReq_misses::.cpu.data              48                       # number of ReadExReq misses
system.l2.ReadExReq_misses::total                  48                       # number of ReadExReq misses
system.l2.ReadExReq_miss_latency::.cpu.data      4498915                       # number of ReadExReq miss cycles
system.l2.ReadExReq_miss_latency::total       4498915                       # number of ReadExReq miss cycles
system.l2.ReadExReq_accesses::.cpu.data            48                       # number of ReadExReq accesses(hits+misses)
system.l2.ReadExReq_accesses::total                48                       # number of ReadExReq accesses(hits+misses)
system.l2.ReadExReq_miss_rate::.cpu.data            1                       # miss rate for ReadExReq accesses
system.l2.ReadExReq_miss_rate::total                1                       # miss rate for ReadExReq accesses
system.l2.ReadExReq_avg_miss_latency::.cpu.data 93727.395833                       # average ReadExReq miss latency
system.l2.ReadExReq_avg_miss_latency::total 93727.395833                       # average ReadExReq miss latency
system.l2.ReadExReq_mshr_misses::.cpu.data           48                       # number of ReadExReq MSHR misses
system.l2.ReadExReq_mshr_misses::total             48                       # number of ReadExReq MSHR misses
system.l2.ReadExReq_mshr_miss_latency::.cpu.data      3843666                       # number of ReadExReq MSHR miss cycles
system.l2.ReadExReq_mshr_miss_latency::total      3843666                       # number of ReadExReq MSHR miss cycles
system.l2.ReadExReq_mshr_miss_rate::.cpu.data            1                       # mshr miss rate for ReadExReq accesses
system.l2.ReadExReq_mshr_miss_rate::total            1                       # mshr miss rate for ReadExReq accesses
system.l2.ReadExReq_avg_mshr_miss_latency::.cpu.data 80076.375000                       # average ReadExReq mshr miss latency
system.l2.ReadExReq_avg_mshr_miss_latency::total 80076.375000                       # average ReadExReq mshr miss latency
system.l2.ReadCleanReq_hits::.cpu.inst              9                       # number of ReadCleanReq hits
system.l2.ReadCleanReq_hits::total                  9                       # number of ReadCleanReq hits
system.l2.ReadCleanReq_misses::.cpu.inst          357                       # number of ReadCleanReq misses
system.l2.ReadCleanReq_misses::total              357                       # number of ReadCleanReq misses
system.l2.ReadCleanReq_miss_latency::.cpu.inst     32754369                       # number of ReadCleanReq miss cycles
system.l2.ReadCleanReq_miss_latency::total     32754369                       # number of ReadCleanReq miss cycles
system.l2.ReadCleanReq_accesses::.cpu.inst          366                       # number of ReadCleanReq accesses(hits+misses)
system.l2.ReadCleanReq_accesses::total            366                       # number of ReadCleanReq accesses(hits+misses)
system.l2.ReadCleanReq_miss_rate::.cpu.inst     0.975410                       # miss rate for ReadCleanReq accesses
system.l2.ReadCleanReq_miss_rate::total      0.975410                       # miss rate for ReadCleanReq accesses
system.l2.ReadCleanReq_avg_miss_latency::.cpu.inst 91748.932773                       # average ReadCleanReq miss latency
system.l2.ReadCleanReq_avg_miss_latency::total 91748.932773                       # average ReadCleanReq miss latency
system.l2.ReadCleanReq_mshr_hits::.cpu.inst            2                       # number of ReadCleanReq MSHR hits
system.l2.ReadCleanReq_mshr_hits::total             2                       # number of ReadCleanReq MSHR hits
system.l2.ReadCleanReq_mshr_misses::.cpu.inst          355                       # number of ReadCleanReq MSHR misses
system.l2.ReadCleanReq_mshr_misses::total          355                       # number of ReadCleanReq MSHR misses
system.l2.ReadCleanReq_mshr_miss_latency::.cpu.inst     27731405                       # number of ReadCleanReq MSHR miss cycles
system.l2.ReadCleanReq_mshr_miss_latency::total     27731405                       # number of ReadCleanReq MSHR miss cycles
system.l2.ReadCleanReq_mshr_miss_rate::.cpu.inst     0.969945                       # mshr miss rate for ReadCleanReq accesses
system.l2.ReadCleanReq_mshr_miss_rate::total     0.969945                       # mshr miss rate for ReadCleanReq accesses
system.l2.ReadCleanReq_avg_mshr_miss_latency::.cpu.inst 78116.633803                       # average ReadCleanReq mshr miss latency
system.l2.ReadCleanReq_avg_mshr_miss_latency::total 78116.633803                       # average ReadCleanReq mshr miss latency
system.l2.ReadSharedReq_hits::.cpu.data            16                       # number of ReadSharedReq hits
system.l2.ReadSharedReq_hits::total                16                       # number of ReadSharedReq hits
system.l2.ReadSharedReq_misses::.cpu.data           99                       # number of ReadSharedReq misses
system.l2.ReadSharedReq_misses::total              99                       # number of ReadSharedReq misses
system.l2.ReadSharedReq_miss_latency::.cpu.data      9716856                       # number of ReadSharedReq miss cycles
system.l2.ReadSharedReq_miss_latency::total      9716856                       # number of ReadSharedReq miss cycles
system.l2.ReadSharedReq_accesses::.cpu.data          115                       # number of ReadSharedReq accesses(hits+misses)
system.l2.ReadSharedReq_accesses::total           115                       # number of ReadSharedReq accesses(hits+misses)
system.l2.ReadSharedReq_miss_rate::.cpu.data     0.860870                       # miss rate for ReadSharedReq accesses
system.l2.ReadSharedReq_miss_rate::total     0.860870                       # miss rate for ReadSharedReq accesses
system.l2.ReadSharedReq_avg_miss_latency::.cpu.data 98150.060606                       # average ReadSharedReq miss latency
system.l2.ReadSharedReq_avg_miss_latency::total 98150.060606                       # average ReadSharedReq miss latency
system.l2.ReadSharedReq_mshr_hits::.cpu.data            2                       # number of ReadSharedReq MSHR hits
system.l2.ReadSharedReq_mshr_hits::total            2                       # number of ReadSharedReq MSHR hits
system.l2.ReadSharedReq_mshr_misses::.cpu.data           97                       # number of ReadSharedReq MSHR misses
system.l2.ReadSharedReq_mshr_misses::total           97                       # number of ReadSharedReq MSHR misses
system.l2.ReadSharedReq_mshr_miss_latency::.cpu.data      8249364                       # number of ReadSharedReq MSHR miss cycles
system.l2.ReadSharedReq_mshr_miss_latency::total      8249364                       # number of ReadSharedReq MSHR miss cycles
system.l2.ReadSharedReq_mshr_miss_rate::.cpu.data     0.843478                       # mshr miss rate for ReadSharedReq accesses
system.l2.ReadSharedReq_mshr_miss_rate::total     0.843478                       # mshr miss rate for ReadSharedReq accesses
system.l2.ReadSharedReq_avg_mshr_miss_latency::.cpu.data 85044.989691                       # average ReadSharedReq mshr miss latency
system.l2.ReadSharedReq_avg_mshr_miss_latency::total 85044.989691                       # average ReadSharedReq mshr miss latency
system.l2.power_state.pwrStateResidencyTicks::UNDEFINED     56264785                       # Cumulative time (in ticks) in various power states
system.l2.tags.tagsinuse                   261.728393                       # Cycle average of tags in use
system.l2.tags.total_refs                         525                       # Total number of references to valid blocks.
system.l2.tags.sampled_refs                       500                       # Sample count of references to valid blocks.
system.l2.tags.avg_refs                      1.050000                       # Average number of references to valid blocks.
system.l2.tags.warmup_cycle                     85000                       # Cycle when the warmup percentage was hit.
system.l2.tags.occ_blocks::.cpu.inst       180.732191                       # Average occupied blocks per requestor
system.l2.tags.occ_blocks::.cpu.data        80.996202                       # Average occupied blocks per requestor
system.l2.tags.occ_percent::.cpu.inst        0.044124                       # Average percentage of cache occupancy
system.l2.tags.occ_percent::.cpu.data        0.019774                       # Average percentage of cache occupancy
system.l2.tags.occ_percent::total            0.063899                       # Average percentage of cache occupancy
system.l2.tags.occ_task_id_blocks::1024           500                       # Occupied blocks per task id
system.l2.tags.age_task_id_blocks_1024::0           93                       # Occupied blocks per task id
system.l2.tags.age_task_id_blocks_1024::1          407                       # Occupied blocks per task id
system.l2.tags.occ_task_id_percent::1024     0.122070                       # Percentage of cache occupancy per task id
system.l2.tags.tag_accesses                      4732                       # Number of tag accesses
system.l2.tags.data_accesses                     4732                       # Number of data accesses
system.l2.tags.power_state.pwrStateResidencyTicks::UNDEFINED     56264785                       # Cumulative time (in ticks) in various power states
system.mem_ctrls.avgPriority_.cpu.inst::samples       710.00                       # Average QoS priority value for accepted requests
system.mem_ctrls.avgPriority_.cpu.data::samples       290.00                       # Average QoS priority value for accepted requests
system.mem_ctrls.priorityMinLatency      0.000000018750                       # per QoS priority minimum request to response latency (s)
system.mem_ctrls.priorityMaxLatency      0.000000569298                       # per QoS priority maximum request to response latency (s)
system.mem_ctrls.numReadWriteTurnArounds            0                       # Number of turnarounds from READ to WRITE
system.mem_ctrls.numWriteReadTurnArounds            0                       # Number of turnarounds from WRITE to READ
system.mem_ctrls.numStayReadState                1510                       # Number of times bus staying in READ state
system.mem_ctrls.numStayWriteState                  0                       # Number of times bus staying in WRITE state
system.mem_ctrls.readReqs                         500                       # Number of read requests accepted
system.mem_ctrls.writeReqs                          0                       # Number of write requests accepted
system.mem_ctrls.readBursts                      1000                       # Number of controller read bursts, including those serviced by the write queue
system.mem_ctrls.writeBursts                        0                       # Number of controller write bursts, including those merged in the write queue
system.mem_ctrls.servicedByWrQ                      0                       # Number of controller read bursts serviced by the write queue
system.mem_ctrls.mergedWrBursts                     0                       # Number of controller write bursts merged with an existing one
system.mem_ctrls.neitherReadNorWriteReqs            0                       # Number of requests that are neither read nor write
system.mem_ctrls.avgRdQLen                       2.24                       # Average read queue length when enqueuing
system.mem_ctrls.avgWrQLen                       0.00                       # Average write queue length when enqueuing
system.mem_ctrls.numRdRetry                         0                       # Number of times read queue was full causing retry
system.mem_ctrls.numWrRetry                         0                       # Number of times write queue was full causing retry
system.mem_ctrls.readPktSize::0                     0                       # Read request sizes (log2)
system.mem_ctrls.readPktSize::1                     0                       # Read request sizes (log2)
system.mem_ctrls.readPktSize::2                     0                       # Read request sizes (log2)
system.mem_ctrls.readPktSize::3                     0                       # Read request sizes (log2)
system.mem_ctrls.readPktSize::4                     0                       # Read request sizes (log2)
system.mem_ctrls.readPktSize::5                     0                       # Read request sizes (log2)
system.mem_ctrls.readPktSize::6                  1000                       # Read request sizes (log2)
system.mem_ctrls.readPktSize::7                     0                       # Read request sizes (log2)
system.mem_ctrls.writePktSize::0                    0                       # Write request sizes (log2)
system.mem_ctrls.writePktSize::1                    0                       # Write request sizes (log2)
system.mem_ctrls.writePktSize::2                    0                       # Write request sizes (log2)
system.mem_ctrls.writePktSize::3                    0                       # Write request sizes (log2)
system.mem_ctrls.writePktSize::4                    0                       # Write request sizes (log2)
system.mem_ctrls.writePktSize::5                    0                       # Write request sizes (log2)
system.mem_ctrls.writePktSize::6                    0                       # Write request sizes (log2)
system.mem_ctrls.writePktSize::7                    0                       # Write request sizes (log2)
system.mem_ctrls.rdQLenPdf::0                     437                       # What read queue length does an incoming req see
system.mem_ctrls.rdQLenPdf::1                     441                       # What read queue length does an incoming req see
system.mem_ctrls.rdQLenPdf::2                      60                       # What read queue length does an incoming req see
system.mem_ctrls.rdQLenPdf::3                      56                       # What read queue length does an incoming req see
system.mem_ctrls.rdQLenPdf::4                       3                       # What read queue length does an incoming req see
system.mem_ctrls.rdQLenPdf::5                       3                       # What read queue length does an incoming req see
system.mem_ctrls.rdQLenPdf::6                       0                       # What read queue length does an incoming req see
system.mem_ctrls.rdQLenPdf::7                       0                       # What read queue length does an incoming req see
system.mem_ctrls.rdQLenPdf::8                       0                       # What read queue length does an incoming req see
system.mem_ctrls.rdQLenPdf::9                       0                       # What read queue length does an incoming req see
system.mem_ctrls.rdQLenPdf::10                      0                       # What read queue length does an incoming req see
system.mem_ctrls.rdQLenPdf::11                      0                       # What read queue length does an incoming req see
system.mem_ctrls.rdQLenPdf::12                      0                       # What read queue length does an incoming req see
system.mem_ctrls.rdQLenPdf::13                      0                       # What read queue length does an incoming req see
system.mem_ctrls.rdQLenPdf::14                      0                       # What read queue length does an incoming req see
system.mem_ctrls.rdQLenPdf::15                      0                       # What read queue length does an incoming req see
system.mem_ctrls.rdQLenPdf::16                      0                       # What read queue length does an incoming req see
system.mem_ctrls.rdQLenPdf::17                      0                       # What read queue length does an incoming req see
system.mem_ctrls.rdQLenPdf::18                      0                       # What read queue length does an incoming req see
system.mem_ctrls.rdQLenPdf::19                      0                       # What read queue length does an incoming req see
system.mem_ctrls.rdQLenPdf::20                      0                       # What read queue length does an incoming req see
system.mem_ctrls.rdQLenPdf::21                      0                       # What read queue length does an incoming req see
system.mem_ctrls.rdQLenPdf::22                      0                       # What read queue length does an incoming req see
system.mem_ctrls.rdQLenPdf::23                      0                       # What read queue length does an incoming req see
system.mem_ctrls.rdQLenPdf::24                      0                       # What read queue length does an incoming req see
system.mem_ctrls.rdQLenPdf::25                      0                       # What read queue length does an incoming req see
system.mem_ctrls.rdQLenPdf::26                      0                       # What read queue length does an incoming req see
[...]
system.mem_ctrls.dram.num_reads::.cpu.inst          355                       # Number of read requests responded to by this memory
system.mem_ctrls.dram.num_reads::.cpu.data          145                       # Number of read requests responded to by this memory
system.mem_ctrls.dram.num_reads::total            500                       # Number of read requests responded to by this memory
system.mem_ctrls.dram.bw_read::.cpu.inst    807609946                       # Total read bandwidth from this memory (bytes/s)
system.mem_ctrls.dram.bw_read::.cpu.data    329868851                       # Total read bandwidth from this memory (bytes/s)
system.mem_ctrls.dram.bw_read::total       1137478798                       # Total read bandwidth from this memory (bytes/s)
system.mem_ctrls.dram.bw_inst_read::.cpu.inst    807609946                       # Instruction read bandwidth from this memory (bytes/s)
system.mem_ctrls.dram.bw_inst_read::total    807609946                       # Instruction read bandwidth from this memory (bytes/s)
system.mem_ctrls.dram.bw_total::.cpu.inst    807609946                       # Total bandwidth to/from this memory (bytes/s)
system.mem_ctrls.dram.bw_total::.cpu.data    329868851                       # Total bandwidth to/from this memory (bytes/s)
system.mem_ctrls.dram.bw_total::total      1137478798                       # Total bandwidth to/from this memory (bytes/s)
system.mem_ctrls.dram.readBursts                 1000                       # Number of DRAM read bursts
system.mem_ctrls.dram.writeBursts                   0                       # Number of DRAM write bursts
system.mem_ctrls.dram.perBankRdBursts::0           98                       # Per bank write bursts
system.mem_ctrls.dram.perBankRdBursts::1           96                       # Per bank write bursts
system.mem_ctrls.dram.perBankRdBursts::2           56                       # Per bank write bursts
system.mem_ctrls.dram.perBankRdBursts::3          102                       # Per bank write bursts
system.mem_ctrls.dram.perBankRdBursts::4           68                       # Per bank write bursts
system.mem_ctrls.dram.perBankRdBursts::5            2                       # Per bank write bursts
system.mem_ctrls.dram.perBankRdBursts::6           42                       # Per bank write bursts
system.mem_ctrls.dram.perBankRdBursts::7           54                       # Per bank write bursts
system.mem_ctrls.dram.perBankRdBursts::8           80                       # Per bank write bursts
system.mem_ctrls.dram.perBankRdBursts::9           66                       # Per bank write bursts
system.mem_ctrls.dram.perBankRdBursts::10           80                       # Per bank write bursts
system.mem_ctrls.dram.perBankRdBursts::11           22                       # Per bank write bursts
system.mem_ctrls.dram.perBankRdBursts::12            0                       # Per bank write bursts
system.mem_ctrls.dram.perBankRdBursts::13           52                       # Per bank write bursts
system.mem_ctrls.dram.perBankRdBursts::14          122                       # Per bank write bursts
system.mem_ctrls.dram.perBankRdBursts::15           60                       # Per bank write bursts
system.mem_ctrls.dram.perBankWrBursts::0            0                       # Per bank write bursts
system.mem_ctrls.dram.perBankWrBursts::1            0                       # Per bank write bursts
system.mem_ctrls.dram.perBankWrBursts::2            0                       # Per bank write bursts
system.mem_ctrls.dram.perBankWrBursts::3            0                       # Per bank write bursts
system.mem_ctrls.dram.perBankWrBursts::4            0                       # Per bank write bursts
system.mem_ctrls.dram.perBankWrBursts::5            0                       # Per bank write bursts
system.mem_ctrls.dram.perBankWrBursts::6            0                       # Per bank write bursts
system.mem_ctrls.dram.perBankWrBursts::7            0                       # Per bank write bursts
system.mem_ctrls.dram.perBankWrBursts::8            0                       # Per bank write bursts
system.mem_ctrls.dram.perBankWrBursts::9            0                       # Per bank write bursts
system.mem_ctrls.dram.perBankWrBursts::10            0                       # Per bank write bursts
system.mem_ctrls.dram.perBankWrBursts::11            0                       # Per bank write bursts
system.mem_ctrls.dram.perBankWrBursts::12            0                       # Per bank write bursts
system.mem_ctrls.dram.perBankWrBursts::13            0                       # Per bank write bursts
system.mem_ctrls.dram.perBankWrBursts::14            0                       # Per bank write bursts
system.mem_ctrls.dram.perBankWrBursts::15            0                       # Per bank write bursts
system.mem_ctrls.dram.totQLat                13474832                       # Total ticks spent queuing
system.mem_ctrls.dram.totBusLat               5000000                       # Total ticks spent in databus transfers
system.mem_ctrls.dram.totMemAccLat           32224832                       # Total ticks spent from burst creation until serviced by the DRAM
system.mem_ctrls.dram.avgQLat                13474.83                       # Average queueing delay per DRAM burst
system.mem_ctrls.dram.avgBusLat               5000.00                       # Average bus latency per DRAM burst
system.mem_ctrls.dram.avgMemAccLat           32224.83                       # Average memory access latency per DRAM burst
system.mem_ctrls.dram.readRowHits                 825                       # Number of row buffer hits during reads
system.mem_ctrls.dram.writeRowHits                  0                       # Number of row buffer hits during writes
system.mem_ctrls.dram.readRowHitRate            82.50                       # Row buffer hit rate for reads
system.mem_ctrls.dram.writeRowHitRate             nan                       # Row buffer hit rate for writes
system.mem_ctrls.dram.bytesPerActivate::samples          172                       # Bytes accessed per row activation
system.mem_ctrls.dram.bytesPerActivate::mean   366.139535                       # Bytes accessed per row activation
system.mem_ctrls.dram.bytesPerActivate::gmean   274.769680                       # Bytes accessed per row activation
system.mem_ctrls.dram.bytesPerActivate::stdev   295.384660                       # Bytes accessed per row activation
system.mem_ctrls.dram.bytesPerActivate::128-255           69     40.12%     40.12% # Bytes accessed per row activation
system.mem_ctrls.dram.bytesPerActivate::256-383           32     18.60%     58.72% # Bytes accessed per row activation
system.mem_ctrls.dram.bytesPerActivate::384-511           25     14.53%     73.26% # Bytes accessed per row activation
system.mem_ctrls.dram.bytesPerActivate::512-639           12      6.98%     80.23% # Bytes accessed per row activation
system.mem_ctrls.dram.bytesPerActivate::640-767           11      6.40%     86.63% # Bytes accessed per row activation
system.mem_ctrls.dram.bytesPerActivate::768-895            1      0.58%     87.21% # Bytes accessed per row activation
system.mem_ctrls.dram.bytesPerActivate::896-1023            1      0.58%     87.79% # Bytes accessed per row activation
system.mem_ctrls.dram.bytesPerActivate::1024-1151           21     12.21%    100.00% # Bytes accessed per row activation
system.mem_ctrls.dram.bytesPerActivate::total          172                       # Bytes accessed per row activation
system.mem_ctrls.dram.bytesRead                 64000                       # Total number of bytes read from DRAM
system.mem_ctrls.dram.bytesWritten                  0                       # Total number of bytes written to DRAM
system.mem_ctrls.dram.avgRdBW             1137.478798                       # Average DRAM read bandwidth in MiBytes/s
system.mem_ctrls.dram.avgWrBW                       0                       # Average DRAM write bandwidth in MiBytes/s
system.mem_ctrls.dram.peakBW                 12800.00                       # Theoretical peak bandwidth in MiByte/s
system.mem_ctrls.dram.busUtil                    8.89                       # Data bus utilization in percentage
system.mem_ctrls.dram.busUtilRead                8.89                       # Data bus utilization in percentage for reads
system.mem_ctrls.dram.busUtilWrite               0.00                       # Data bus utilization in percentage for writes
system.mem_ctrls.dram.pageHitRate               82.50                       # Row buffer hit rate, read and write combined
system.mem_ctrls.dram.power_state.pwrStateResidencyTicks::UNDEFINED     56264785                       # Cumulative time (in ticks) in various power states
system.mem_ctrls.dram.rank0.actEnergy          628320                       # Energy for activate commands per rank (pJ)
system.mem_ctrls.dram.rank0.preEnergy          326370                       # Energy for precharge commands per rank (pJ)
system.mem_ctrls.dram.rank0.readEnergy        3698520                       # Energy for read commands per rank (pJ)
system.mem_ctrls.dram.rank0.writeEnergy             0                       # Energy for write commands per rank (pJ)
system.mem_ctrls.dram.rank0.refreshEnergy 4302480.000000                       # Energy for refresh commands per rank (pJ)
system.mem_ctrls.dram.rank0.actBackEnergy     24835470                       # Energy for active background per rank (pJ)
system.mem_ctrls.dram.rank0.preBackEnergy       691680                       # Energy for precharge background per rank (pJ)
system.mem_ctrls.dram.rank0.actPowerDownEnergy            0                       # Energy for active power-down per rank (pJ)
system.mem_ctrls.dram.rank0.prePowerDownEnergy            0                       # Energy for precharge power-down per rank (pJ)
system.mem_ctrls.dram.rank0.selfRefreshEnergy            0                       # Energy for self refresh per rank (pJ)
system.mem_ctrls.dram.rank0.totalEnergy      34482840                       # Total energy per rank (pJ)
system.mem_ctrls.dram.rank0.averagePower   612.867178                       # Core power per rank (mW)
system.mem_ctrls.dram.rank0.totalIdleTime            0                       # Total Idle time Per DRAM Rank
system.mem_ctrls.dram.rank0.pwrStateTime::IDLE      1607144                       # Time in different power states
system.mem_ctrls.dram.rank0.pwrStateTime::REF      1820000                       # Time in different power states
system.mem_ctrls.dram.rank0.pwrStateTime::SREF            0                       # Time in different power states
system.mem_ctrls.dram.rank0.pwrStateTime::PRE_PDN            0                       # Time in different power states
system.mem_ctrls.dram.rank0.pwrStateTime::ACT     52837641                       # Time in different power states
system.mem_ctrls.dram.rank0.pwrStateTime::ACT_PDN            0                       # Time in different power states
system.mem_ctrls.dram.rank1.actEnergy          621180                       # Energy for activate commands per rank (pJ)
system.mem_ctrls.dram.rank1.preEnergy          326370                       # Energy for precharge commands per rank (pJ)
system.mem_ctrls.dram.rank1.readEnergy        3441480                       # Energy for read commands per rank (pJ)
system.mem_ctrls.dram.rank1.writeEnergy             0                       # Energy for write commands per rank (pJ)
system.mem_ctrls.dram.rank1.refreshEnergy 4302480.000000                       # Energy for refresh commands per rank (pJ)
system.mem_ctrls.dram.rank1.actBackEnergy     23965080                       # Energy for active background per rank (pJ)
system.mem_ctrls.dram.rank1.preBackEnergy      1424640                       # Energy for precharge background per rank (pJ)
system.mem_ctrls.dram.rank1.actPowerDownEnergy            0                       # Energy for active power-down per rank (pJ)
system.mem_ctrls.dram.rank1.prePowerDownEnergy            0                       # Energy for precharge power-down per rank (pJ)
system.mem_ctrls.dram.rank1.selfRefreshEnergy            0                       # Energy for self refresh per rank (pJ)
system.mem_ctrls.dram.rank1.totalEnergy      34081230                       # Total energy per rank (pJ)
system.mem_ctrls.dram.rank1.averagePower   605.729321                       # Core power per rank (mW)
system.mem_ctrls.dram.rank1.totalIdleTime            0                       # Total Idle time Per DRAM Rank
system.mem_ctrls.dram.rank1.pwrStateTime::IDLE      3501403                       # Time in different power states
system.mem_ctrls.dram.rank1.pwrStateTime::REF      1820000                       # Time in different power states
system.mem_ctrls.dram.rank1.pwrStateTime::SREF            0                       # Time in different power states
system.mem_ctrls.dram.rank1.pwrStateTime::PRE_PDN            0                       # Time in different power states
system.mem_ctrls.dram.rank1.pwrStateTime::ACT     50943382                       # Time in different power states
system.mem_ctrls.dram.rank1.pwrStateTime::ACT_PDN            0                       # Time in different power states
system.mem_ctrls.power_state.pwrStateResidencyTicks::UNDEFINED     56264785                       # Cumulative time (in ticks) in various power states
system.membus.trans_dist::ReadResp                452                       # Transaction distribution
system.membus.trans_dist::ReadExReq                48                       # Transaction distribution
system.membus.trans_dist::ReadExResp               48                       # Transaction distribution
system.membus.trans_dist::ReadSharedReq           452                       # Transaction distribution
system.membus.pkt_count_system.l2.mem_side_port::system.mem_ctrls.port         1000                       # Packet count per connected requestor and responder (bytes)
system.membus.pkt_count::total                   1000                       # Packet count per connected requestor and responder (bytes)
system.membus.pkt_size_system.l2.mem_side_port::system.mem_ctrls.port        64000                       # Cumulative packet size per connected requestor and responder (bytes)
system.membus.pkt_size::total                   64000                       # Cumulative packet size per connected requestor and responder (bytes)
system.membus.snoops                                0                       # Total snoops (count)
system.membus.snoopTraffic                          0                       # Total snoop traffic (bytes)
system.membus.snoop_fanout::samples               500                       # Request fanout histogram
system.membus.snoop_fanout::mean                    0                       # Request fanout histogram
system.membus.snoop_fanout::stdev                   0                       # Request fanout histogram
system.membus.snoop_fanout::underflows              0      0.00%      0.00% # Request fanout histogram
system.membus.snoop_fanout::0                     500    100.00%    100.00% # Request fanout histogram
system.membus.snoop_fanout::1                       0      0.00%    100.00% # Request fanout histogram
system.membus.snoop_fanout::overflows               0      0.00%    100.00% # Request fanout histogram
system.membus.snoop_fanout::min_value               0                       # Request fanout histogram
system.membus.snoop_fanout::max_value               0                       # Request fanout histogram
system.membus.snoop_fanout::total                 500                       # Request fanout histogram
system.membus.power_state.pwrStateResidencyTicks::UNDEFINED     56264785                       # Cumulative time (in ticks) in various power states
system.membus.reqLayer0.occupancy              759807                       # Layer occupancy (ticks)
system.membus.reqLayer0.utilization               1.4                       # Layer utilization (%)
system.membus.respLayer1.occupancy            4694535                       # Layer occupancy (ticks)
system.membus.respLayer1.utilization              8.3                       # Layer utilization (%)
system.tol2bus.trans_dist::ReadResp               481                       # Transaction distribution
system.tol2bus.trans_dist::ReadExReq               48                       # Transaction distribution
system.tol2bus.trans_dist::ReadExResp              48                       # Transaction distribution
system.tol2bus.trans_dist::ReadCleanReq           366                       # Transaction distribution
system.tol2bus.trans_dist::ReadSharedReq          115                       # Transaction distribution
system.tol2bus.pkt_count_system.cpu.icache.mem_side_port::system.l2.cpu_side_port          732                       # Packet count per connected requestor and responder (bytes)
system.tol2bus.pkt_count_system.cpu.dcache.mem_side_port::system.l2.cpu_side_port          326                       # Packet count per connected requestor and responder (bytes)
system.tol2bus.pkt_count::total                  1058                       # Packet count per connected requestor and responder (bytes)
system.tol2bus.pkt_size_system.cpu.icache.mem_side_port::system.l2.cpu_side_port        46848                       # Cumulative packet size per connected requestor and responder (bytes)
system.tol2bus.pkt_size_system.cpu.dcache.mem_side_port::system.l2.cpu_side_port        20864                       # Cumulative packet size per connected requestor and responder (bytes)
system.tol2bus.pkt_size::total                  67712                       # Cumulative packet size per connected requestor and responder (bytes)
system.tol2bus.snoops                               0                       # Total snoops (count)
system.tol2bus.snoopTraffic                         0                       # Total snoop traffic (bytes)
system.tol2bus.snoop_fanout::samples              529                       # Request fanout histogram
system.tol2bus.snoop_fanout::mean            0.054820                       # Request fanout histogram
system.tol2bus.snoop_fanout::stdev           0.227845                       # Request fanout histogram
system.tol2bus.snoop_fanout::underflows             0      0.00%      0.00% # Request fanout histogram
system.tol2bus.snoop_fanout::0                    500     94.52%     94.52% # Request fanout histogram
system.tol2bus.snoop_fanout::1                     29      5.48%    100.00% # Request fanout histogram
system.tol2bus.snoop_fanout::2                      0      0.00%    100.00% # Request fanout histogram
system.tol2bus.snoop_fanout::overflows              0      0.00%    100.00% # Request fanout histogram
system.tol2bus.snoop_fanout::min_value              0                       # Request fanout histogram
system.tol2bus.snoop_fanout::max_value              1                       # Request fanout histogram
system.tol2bus.snoop_fanout::total                529                       # Request fanout histogram
system.tol2bus.power_state.pwrStateResidencyTicks::UNDEFINED     56264785                       # Cumulative time (in ticks) in various power states
system.tol2bus.reqLayer0.occupancy             352843                       # Layer occupancy (ticks)
system.tol2bus.reqLayer0.utilization              0.6                       # Layer utilization (%)
system.tol2bus.respLayer0.occupancy           1221942                       # Layer occupancy (ticks)
system.tol2bus.respLayer0.utilization             2.2                       # Layer utilization (%)
system.tol2bus.respLayer1.occupancy            544937                       # Layer occupancy (ticks)
system.tol2bus.respLayer1.utilization             1.0                       # Layer utilization (%)
system.voltage_domain.voltage                       1                       # Voltage in Volts

---------- End Simulation Statistics   ----------
