
---------- Begin Simulation Statistics ----------
final_tick                                   69692829                       # Number of ticks from beginning of simulation (restored from checkpoints and never reset)
host_inst_rate                                 140811                       # Simulator instruction rate (inst/s)
host_mem_usage                                 677508                       # Number of bytes of host memory used
host_op_rate                                   158592                       # Simulator op (including micro ops) rate (op/s)
host_seconds                                     0.11                       # Real time elapsed on the host
host_tick_rate                              647596915                       # Simulator tick rate (ticks/s)
sim_freq                                 1000000000000                       # Frequency of simulated ticks
sim_insts                                       15136                       # Number of instructions simulated
sim_ops                                         17064                       # Number of ops (including micro ops) simulated
sim_seconds                                  0.000070                       # Number of seconds simulated
sim_ticks                                    69692829                       # Number of ticks simulated
system.cpu.committedInsts                       15136                       # Number of instructions committed
system.cpu.committedOps                         17064                       # Number of ops (including micro ops) committed
system.cpu.cpi                               6.903211                       # CPI: cycles per instruction
system.cpu.discardedOps                          2766                       # Number of ops (including micro ops) which were discarded before commit
system.cpu.idleCycles                           76778                       # Total number of cycles that the object has spent stopped
system.cpu.ipc                               0.144860                       # IPC: instructions per cycle
system.cpu.numCycles                           104487                       # number of cpu cycles simulated
system.cpu.numFetchSuspends                         0                       # Number of times Execute suspended instruction fetching
system.cpu.numWorkItemsCompleted                    0                       # number of work items this cpu completed
system.cpu.numWorkItemsStarted                      0                       # number of work items this cpu started
system.cpu.op_class_0::No_OpClass                   0      0.00%      0.00% # Class of committed instruction
system.cpu.op_class_0::IntAlu                   11808     69.20%     69.20% # Class of committed instruction
system.cpu.op_class_0::IntMult                    125      0.73%     69.93% # Class of committed instruction
system.cpu.op_class_0::IntDiv                       0      0.00%     69.93% # Class of committed instruction
system.cpu.op_class_0::FloatAdd                     0      0.00%     69.93% # Class of committed instruction
system.cpu.op_class_0::FloatCmp                     0      0.00%     69.93% # Class of committed instruction
system.cpu.op_class_0::FloatCvt                     0      0.00%     69.93% # Class of committed instruction
system.cpu.op_class_0::FloatMult                    0      0.00%     69.93% # Class of committed instruction
system.cpu.op_class_0::FloatMultAcc                 0      0.00%     69.93% # Class of committed instruction
system.cpu.op_class_0::FloatDiv                     0      0.00%     69.93% # Class of committed instruction
system.cpu.op_class_0::FloatMisc                    0      0.00%     69.93% # Class of committed instruction
system.cpu.op_class_0::FloatSqrt                    0      0.00%     69.93% # Class of committed instruction
system.cpu.op_class_0::SimdAdd                      0      0.00%     69.93% # Class of committed instruction
system.cpu.op_class_0::SimdAddAcc                   0      0.00%     69.93% # Class of committed instruction
system.cpu.op_class_0::SimdAlu                      0      0.00%     69.93% # Class of committed instruction
system.cpu.op_class_0::SimdCmp                      0      0.00%     69.93% # Class of committed instruction
system.cpu.op_class_0::SimdCvt                      0      0.00%     69.93% # Class of committed instruction
system.cpu.op_class_0::SimdMisc                     0      0.00%     69.93% # Class of committed instruction
system.cpu.op_class_0::SimdMult                     0      0.00%     69.93% # Class of committed instruction
system.cpu.op_class_0::SimdMultAcc                  0      0.00%     69.93% # Class of committed instruction
system.cpu.op_class_0::SimdShift                    0      0.00%     69.93% # Class of committed instruction
system.cpu.op_class_0::SimdShiftAcc                 0      0.00%     69.93% # Class of committed instruction
system.cpu.op_class_0::SimdDiv                      0      0.00%     69.93% # Class of committed instruction
system.cpu.op_class_0::SimdSqrt                     0      0.00%     69.93% # Class of committed instruction
system.cpu.op_class_0::SimdFloatAdd                 0      0.00%     69.93% # Class of committed instruction
system.cpu.op_class_0::SimdFloatAlu                 0      0.00%     69.93% # Class of committed instruction
system.cpu.op_class_0::SimdFloatCmp                 0      0.00%     69.93% # Class of committed instruction
system.cpu.op_class_0::SimdFloatCvt                 2      0.01%     69.94% # Class of committed instruction
system.cpu.op_class_0::SimdFloatDiv                 0      0.00%     69.94% # Class of committed instruction
system.cpu.op_class_0::SimdFloatMisc               27      0.16%     70.10% # Class of committed instruction
system.cpu.op_class_0::SimdFloatMult                0      0.00%     70.10% # Class of committed instruction
system.cpu.op_class_0::SimdFloatMultAcc             0      0.00%     70.10% # Class of committed instruction
system.cpu.op_class_0::SimdFloatSqrt                0      0.00%     70.10% # Class of committed instruction
system.cpu.op_class_0::SimdReduceAdd                0      0.00%     70.10% # Class of committed instruction
system.cpu.op_class_0::SimdReduceAlu                0      0.00%     70.10% # Class of committed instruction
system.cpu.op_class_0::SimdReduceCmp                0      0.00%     70.10% # Class of committed instruction
system.cpu.op_class_0::SimdFloatReduceAdd            0      0.00%     70.10% # Class of committed instruction
system.cpu.op_class_0::SimdFloatReduceCmp            0      0.00%     70.10% # Class of committed instruction
system.cpu.op_class_0::SimdAes                      0      0.00%     70.10% # Class of committed instruction
system.cpu.op_class_0::SimdAesMix                   0      0.00%     70.10% # Class of committed instruction
system.cpu.op_class_0::SimdSha1Hash                 0      0.00%     70.10% # Class of committed instruction
system.cpu.op_class_0::SimdSha1Hash2                0      0.00%     70.10% # Class of committed instruction
system.cpu.op_class_0::SimdSha256Hash               0      0.00%     70.10% # Class of committed instruction
system.cpu.op_class_0::SimdSha256Hash2              0      0.00%     70.10% # Class of committed instruction
system.cpu.op_class_0::SimdShaSigma2                0      0.00%     70.10% # Class of committed instruction
system.cpu.op_class_0::SimdShaSigma3                0      0.00%     70.10% # Class of committed instruction
system.cpu.op_class_0::SimdPredAlu                  0      0.00%     70.10% # Class of committed instruction
system.cpu.op_class_0::MemRead                   2975     17.43%     87.54% # Class of committed instruction
system.cpu.op_class_0::MemWrite                  2127     12.46%    100.00% # Class of committed instruction
system.cpu.op_class_0::FloatMemRead                 0      0.00%    100.00% # Class of committed instruction
system.cpu.op_class_0::FloatMemWrite                0      0.00%    100.00% # Class of committed instruction
system.cpu.op_class_0::IprAccess                    0      0.00%    100.00% # Class of committed instruction
system.cpu.op_class_0::InstPrefetch                 0      0.00%    100.00% # Class of committed instruction
system.cpu.op_class_0::total                    17064                       # Class of committed instruction
system.cpu.tickCycles                           27709                       # Number of cycles that the object actually ticked
system.cpu.workload.numSyscalls                    12                       # Number of system calls
system.membus.snoop_filter.hit_multi_requests            0                       # Number of requests hitting in the snoop filter with multiple (>1) holders of the requested data.
system.membus.snoop_filter.hit_multi_snoops            0                       # Number of snoops hitting in the snoop filter with multiple (>1) holders of the requested data.
system.membus.snoop_filter.hit_single_requests            0                       # Number of requests hitting in the snoop filter with a single holder of the requested data.
system.membus.snoop_filter.hit_single_snoops            0                       # Number of snoops hitting in the snoop filter with a single holder of the requested data.
system.membus.snoop_filter.tot_requests           746                       # Total number of requests made to the snoop filter.
system.membus.snoop_filter.tot_snoops               0                       # Total number of snoops made to the snoop filter.
system.tol2bus.snoop_filter.hit_multi_requests           15                       # Number of requests hitting in the snoop filter with multiple (>1) holders of the requested data.
system.tol2bus.snoop_filter.hit_multi_snoops            0                       # Number of snoops hitting in the snoop filter with multiple (>1) holders of the requested data.
system.tol2bus.snoop_filter.hit_single_requests          226                       # Number of requests hitting in the snoop filter with a single holder of the requested data.
system.tol2bus.snoop_filter.hit_single_snoops            0                       # Number of snoops hitting in the snoop filter with a single holder of the requested data.
system.tol2bus.snoop_filter.tot_requests         1009                       # Total number of requests made to the snoop filter.
system.tol2bus.snoop_filter.tot_snoops              0                       # Total number of snoops made to the snoop filter.
system.clk_domain.clock                          1000                       # Clock period in ticks
system.cpu.branchPred.lookups                    4661                       # Number of BP lookups
system.cpu.branchPred.condPredicted              3025                       # Number of conditional branches predicted
system.cpu.branchPred.condIncorrect               860                       # Number of conditional branches incorrect
system.cpu.branchPred.BTBLookups                 2399                       # Number of BTB lookups
system.cpu.branchPred.BTBHits                    1081                       # Number of BTB hits
system.cpu.branchPred.BTBHitPct             45.060442                       # BTB Hit Percentage
system.cpu.branchPred.RASUsed                     394                       # Number of times the RAS was used to get a target.
system.cpu.branchPred.RASIncorrect                  1                       # Number of incorrect RAS predictions.
system.cpu.branchPred.indirectLookups             151                       # Number of indirect predictor lookups.
system.cpu.branchPred.indirectHits                 15                       # Number of indirect target hits.
system.cpu.branchPred.indirectMisses              136                       # Number of indirect misses.
system.cpu.branchPred.indirectMispredicted           64                       # Number of mispredicted indirect branches.
system.cpu.dcache.demand_hits::.cpu.data         5103                       # number of demand (read+write) hits
system.cpu.dcache.demand_hits::total             5103                       # number of demand (read+write) hits
system.cpu.dcache.overall_hits::.cpu.data         5152                       # number of overall hits
system.cpu.dcache.overall_hits::total            5152                       # number of overall hits
system.cpu.dcache.demand_misses::.cpu.data          276                       # number of demand (read+write) misses
system.cpu.dcache.demand_misses::total            276                       # number of demand (read+write) misses
system.cpu.dcache.overall_misses::.cpu.data          303                       # number of overall misses
system.cpu.dcache.overall_misses::total           303                       # number of overall misses
system.cpu.dcache.demand_miss_latency::.cpu.data     25354004                       # number of demand (read+write) miss cycles
system.cpu.dcache.demand_miss_latency::total     25354004                       # number of demand (read+write) miss cycles
system.cpu.dcache.overall_miss_latency::.cpu.data     25354004                       # number of overall miss cycles
system.cpu.dcache.overall_miss_latency::total     25354004                       # number of overall miss cycles
system.cpu.dcache.demand_accesses::.cpu.data         5379                       # number of demand (read+write) accesses
system.cpu.dcache.demand_accesses::total         5379                       # number of demand (read+write) accesses
system.cpu.dcache.overall_accesses::.cpu.data         5455                       # number of overall (read+write) accesses
system.cpu.dcache.overall_accesses::total         5455                       # number of overall (read+write) accesses
system.cpu.dcache.demand_miss_rate::.cpu.data     0.051311                       # miss rate for demand accesses
system.cpu.dcache.demand_miss_rate::total     0.051311                       # miss rate for demand accesses
system.cpu.dcache.overall_miss_rate::.cpu.data     0.055545                       # miss rate for overall accesses
system.cpu.dcache.overall_miss_rate::total     0.055545                       # miss rate for overall accesses
system.cpu.dcache.demand_avg_miss_latency::.cpu.data 91862.333333                       # average overall miss latency
system.cpu.dcache.demand_avg_miss_latency::total 91862.333333                       # average overall miss latency
system.cpu.dcache.overall_avg_miss_latency::.cpu.data 83676.580858                       # average overall miss latency
system.cpu.dcache.overall_avg_miss_latency::total 83676.580858                       # average overall miss latency
system.cpu.dcache.blocked_cycles::no_mshrs            0                       # number of cycles access was blocked
system.cpu.dcache.blocked_cycles::no_targets            0                       # number of cycles access was blocked
system.cpu.dcache.blocked::no_mshrs                 0                       # number of cycles access was blocked
system.cpu.dcache.blocked::no_targets               0                       # number of cycles access was blocked
system.cpu.dcache.avg_blocked_cycles::no_mshrs          nan                       # average number of cycles each access was blocked
system.cpu.dcache.avg_blocked_cycles::no_targets          nan                       # average number of cycles each access was blocked
system.cpu.dcache.writebacks::.writebacks            3                       # number of writebacks
system.cpu.dcache.writebacks::total                 3                       # number of writebacks
system.cpu.dcache.demand_mshr_hits::.cpu.data           60                       # number of demand (read+write) MSHR hits
system.cpu.dcache.demand_mshr_hits::total           60                       # number of demand (read+write) MSHR hits
system.cpu.dcache.overall_mshr_hits::.cpu.data           60                       # number of overall MSHR hits
system.cpu.dcache.overall_mshr_hits::total           60                       # number of overall MSHR hits
system.cpu.dcache.demand_mshr_misses::.cpu.data          216                       # number of demand (read+write) MSHR misses
system.cpu.dcache.demand_mshr_misses::total          216                       # number of demand (read+write) MSHR misses
system.cpu.dcache.overall_mshr_misses::.cpu.data          235                       # number of overall MSHR misses
system.cpu.dcache.overall_mshr_misses::total          235                       # number of overall MSHR misses
system.cpu.dcache.demand_mshr_miss_latency::.cpu.data     19265628                       # number of demand (read+write) MSHR miss cycles
system.cpu.dcache.demand_mshr_miss_latency::total     19265628                       # number of demand (read+write) MSHR miss cycles
system.cpu.dcache.overall_mshr_miss_latency::.cpu.data     21045184                       # number of overall MSHR miss cycles
system.cpu.dcache.overall_mshr_miss_latency::total     21045184                       # number of overall MSHR miss cycles
system.cpu.dcache.demand_mshr_miss_rate::.cpu.data     0.040156                       # mshr miss rate for demand accesses
system.cpu.dcache.demand_mshr_miss_rate::total     0.040156                       # mshr miss rate for demand accesses
system.cpu.dcache.overall_mshr_miss_rate::.cpu.data     0.043080                       # mshr miss rate for overall accesses
system.cpu.dcache.overall_mshr_miss_rate::total     0.043080                       # mshr miss rate for overall accesses
system.cpu.dcache.demand_avg_mshr_miss_latency::.cpu.data 89192.722222                       # average overall mshr miss latency
system.cpu.dcache.demand_avg_mshr_miss_latency::total 89192.722222                       # average overall mshr miss latency
system.cpu.dcache.overall_avg_mshr_miss_latency::.cpu.data 89553.974468                       # average overall mshr miss latency
system.cpu.dcache.overall_avg_mshr_miss_latency::total 89553.974468                       # average overall mshr miss latency
system.cpu.dcache.replacements                     11                       # number of replacements
system.cpu.dcache.ReadReq_hits::.cpu.data         3168                       # number of ReadReq hits
system.cpu.dcache.ReadReq_hits::total            3168                       # number of ReadReq hits
system.cpu.dcache.ReadReq_misses::.cpu.data          140                       # number of ReadReq misses
system.cpu.dcache.ReadReq_misses::total           140                       # number of ReadReq misses
system.cpu.dcache.ReadReq_miss_latency::.cpu.data     11972650                       # number of ReadReq miss cycles
system.cpu.dcache.ReadReq_miss_latency::total     11972650                       # number of ReadReq miss cycles
system.cpu.dcache.ReadReq_accesses::.cpu.data         3308                       # number of ReadReq accesses(hits+misses)
system.cpu.dcache.ReadReq_accesses::total         3308                       # number of ReadReq accesses(hits+misses)
system.cpu.dcache.ReadReq_miss_rate::.cpu.data     0.042322                       # miss rate for ReadReq accesses
system.cpu.dcache.ReadReq_miss_rate::total     0.042322                       # miss rate for ReadReq accesses
system.cpu.dcache.ReadReq_avg_miss_latency::.cpu.data 85518.928571                       # average ReadReq miss latency
system.cpu.dcache.ReadReq_avg_miss_latency::total 85518.928571                       # average ReadReq miss latency
system.cpu.dcache.ReadReq_mshr_hits::.cpu.data            7                       # number of ReadReq MSHR hits
system.cpu.dcache.ReadReq_mshr_hits::total            7                       # number of ReadReq MSHR hits
system.cpu.dcache.ReadReq_mshr_misses::.cpu.data          133                       # number of ReadReq MSHR misses
system.cpu.dcache.ReadReq_mshr_misses::total          133                       # number of ReadReq MSHR misses
system.cpu.dcache.ReadReq_mshr_miss_latency::.cpu.data     11221608                       # number of ReadReq MSHR miss cycles
system.cpu.dcache.ReadReq_mshr_miss_latency::total     11221608                       # number of ReadReq MSHR miss cycles
system.cpu.dcache.ReadReq_mshr_miss_rate::.cpu.data     0.040206                       # mshr miss rate for ReadReq accesses
system.cpu.dcache.ReadReq_mshr_miss_rate::total     0.040206                       # mshr miss rate for ReadReq accesses
system.cpu.dcache.ReadReq_avg_mshr_miss_latency::.cpu.data 84372.992481                       # average ReadReq mshr miss latency
system.cpu.dcache.ReadReq_avg_mshr_miss_latency::total 84372.992481                       # average ReadReq mshr miss latency
system.cpu.dcache.WriteReq_hits::.cpu.data         1935                       # number of WriteReq hits
system.cpu.dcache.WriteReq_hits::total           1935                       # number of WriteReq hits
system.cpu.dcache.WriteReq_misses::.cpu.data          136                       # number of WriteReq misses
system.cpu.dcache.WriteReq_misses::total          136                       # number of WriteReq misses
system.cpu.dcache.WriteReq_miss_latency::.cpu.data     13381354                       # number of WriteReq miss cycles
system.cpu.dcache.WriteReq_miss_latency::total     13381354                       # number of WriteReq miss cycles
system.cpu.dcache.WriteReq_accesses::.cpu.data         2071                       # number of WriteReq accesses(hits+misses)
system.cpu.dcache.WriteReq_accesses::total         2071                       # number of WriteReq accesses(hits+misses)
system.cpu.dcache.WriteReq_miss_rate::.cpu.data     0.065669                       # miss rate for WriteReq accesses
system.cpu.dcache.WriteReq_miss_rate::total     0.065669                       # miss rate for WriteReq accesses
system.cpu.dcache.WriteReq_avg_miss_latency::.cpu.data 98392.308824                       # average WriteReq miss latency
system.cpu.dcache.WriteReq_avg_miss_latency::total 98392.308824                       # average WriteReq miss latency
system.cpu.dcache.WriteReq_mshr_hits::.cpu.data           53                       # number of WriteReq MSHR hits
system.cpu.dcache.WriteReq_mshr_hits::total           53                       # number of WriteReq MSHR hits
system.cpu.dcache.WriteReq_mshr_misses::.cpu.data           83                       # number of WriteReq MSHR misses
system.cpu.dcache.WriteReq_mshr_misses::total           83                       # number of WriteReq MSHR misses
system.cpu.dcache.WriteReq_mshr_miss_latency::.cpu.data      8044020                       # number of WriteReq MSHR miss cycles
system.cpu.dcache.WriteReq_mshr_miss_latency::total      8044020                       # number of WriteReq MSHR miss cycles
system.cpu.dcache.WriteReq_mshr_miss_rate::.cpu.data     0.040077                       # mshr miss rate for WriteReq accesses
system.cpu.dcache.WriteReq_mshr_miss_rate::total     0.040077                       # mshr miss rate for WriteReq accesses
system.cpu.dcache.WriteReq_avg_mshr_miss_latency::.cpu.data 96915.903614                       # average WriteReq mshr miss latency
system.cpu.dcache.WriteReq_avg_mshr_miss_latency::total 96915.903614                       # average WriteReq mshr miss latency
system.cpu.dcache.SoftPFReq_hits::.cpu.data           49                       # number of SoftPFReq hits
system.cpu.dcache.SoftPFReq_hits::total            49                       # number of SoftPFReq hits
system.cpu.dcache.SoftPFReq_misses::.cpu.data           27                       # number of SoftPFReq misses
system.cpu.dcache.SoftPFReq_misses::total           27                       # number of SoftPFReq misses
system.cpu.dcache.SoftPFReq_accesses::.cpu.data           76                       # number of SoftPFReq accesses(hits+misses)
system.cpu.dcache.SoftPFReq_accesses::total           76                       # number of SoftPFReq accesses(hits+misses)
system.cpu.dcache.SoftPFReq_miss_rate::.cpu.data     0.355263                       # miss rate for SoftPFReq accesses
system.cpu.dcache.SoftPFReq_miss_rate::total     0.355263                       # miss rate for SoftPFReq accesses
system.cpu.dcache.SoftPFReq_mshr_misses::.cpu.data           19                       # number of SoftPFReq MSHR misses
system.cpu.dcache.SoftPFReq_mshr_misses::total           19                       # number of SoftPFReq MSHR misses
system.cpu.dcache.SoftPFReq_mshr_miss_latency::.cpu.data      1779556                       # number of SoftPFReq MSHR miss cycles
system.cpu.dcache.SoftPFReq_mshr_miss_latency::total      1779556                       # number of SoftPFReq MSHR miss cycles
system.cpu.dcache.SoftPFReq_mshr_miss_rate::.cpu.data     0.250000                       # mshr miss rate for SoftPFReq accesses
system.cpu.dcache.SoftPFReq_mshr_miss_rate::total     0.250000                       # mshr miss rate for SoftPFReq accesses
system.cpu.dcache.SoftPFReq_avg_mshr_miss_latency::.cpu.data 93660.842105                       # average SoftPFReq mshr miss latency
system.cpu.dcache.SoftPFReq_avg_mshr_miss_latency::total 93660.842105                       # average SoftPFReq mshr miss latency
system.cpu.dcache.LoadLockedReq_hits::.cpu.data           19                       # number of LoadLockedReq hits
system.cpu.dcache.LoadLockedReq_hits::total           19                       # number of LoadLockedReq hits
system.cpu.dcache.LoadLockedReq_misses::.cpu.data            1                       # number of LoadLockedReq misses
system.cpu.dcache.LoadLockedReq_misses::total            1                       # number of LoadLockedReq misses
system.cpu.dcache.LoadLockedReq_miss_latency::.cpu.data        80707                       # number of LoadLockedReq miss cycles
system.cpu.dcache.LoadLockedReq_miss_latency::total        80707                       # number of LoadLockedReq miss cycles
system.cpu.dcache.LoadLockedReq_accesses::.cpu.data           20                       # number of LoadLockedReq accesses(hits+misses)
system.cpu.dcache.LoadLockedReq_accesses::total           20                       # number of LoadLockedReq accesses(hits+misses)
system.cpu.dcache.LoadLockedReq_miss_rate::.cpu.data     0.050000                       # miss rate for LoadLockedReq accesses
system.cpu.dcache.LoadLockedReq_miss_rate::total     0.050000                       # miss rate for LoadLockedReq accesses
system.cpu.dcache.LoadLockedReq_avg_miss_latency::.cpu.data        80707                       # average LoadLockedReq miss latency
system.cpu.dcache.LoadLockedReq_avg_miss_latency::total        80707                       # average LoadLockedReq miss latency
system.cpu.dcache.LoadLockedReq_mshr_misses::.cpu.data            1                       # number of LoadLockedReq MSHR misses
system.cpu.dcache.LoadLockedReq_mshr_misses::total            1                       # number of LoadLockedReq MSHR misses
system.cpu.dcache.LoadLockedReq_mshr_miss_latency::.cpu.data        79373                       # number of LoadLockedReq MSHR miss cycles
system.cpu.dcache.LoadLockedReq_mshr_miss_latency::total        79373                       # number of LoadLockedReq MSHR miss cycles
system.cpu.dcache.LoadLockedReq_mshr_miss_rate::.cpu.data     0.050000                       # mshr miss rate for LoadLockedReq accesses
system.cpu.dcache.LoadLockedReq_mshr_miss_rate::total     0.050000                       # mshr miss rate for LoadLockedReq accesses
system.cpu.dcache.LoadLockedReq_avg_mshr_miss_latency::.cpu.data        79373                       # average LoadLockedReq mshr miss latency
system.cpu.dcache.LoadLockedReq_avg_mshr_miss_latency::total        79373                       # average LoadLockedReq mshr miss latency
system.cpu.dcache.StoreCondReq_hits::.cpu.data           20                       # number of StoreCondReq hits
system.cpu.dcache.StoreCondReq_hits::total           20                       # number of StoreCondReq hits
system.cpu.dcache.StoreCondReq_accesses::.cpu.data           20                       # number of StoreCondReq accesses(hits+misses)
system.cpu.dcache.StoreCondReq_accesses::total           20                       # number of StoreCondReq accesses(hits+misses)
system.cpu.dcache.power_state.pwrStateResidencyTicks::UNDEFINED     69692829                       # Cumulative time (in ticks) in various power states
system.cpu.dcache.tags.tagsinuse           127.992393                       # Cycle average of tags in use
system.cpu.dcache.tags.total_refs                5427                       # Total number of references to valid blocks.
system.cpu.dcache.tags.sampled_refs               236                       # Sample count of references to valid blocks.
system.cpu.dcache.tags.avg_refs             22.995763                       # Average number of references to valid blocks.
system.cpu.dcache.tags.warmup_cycle            192096                       # Cycle when the warmup percentage was hit.
system.cpu.dcache.tags.occ_blocks::.cpu.data   127.992393                       # Average occupied blocks per requestor
system.cpu.dcache.tags.occ_percent::.cpu.data     0.124993                       # Average percentage of cache occupancy
system.cpu.dcache.tags.occ_percent::total     0.124993                       # Average percentage of cache occupancy
system.cpu.dcache.tags.occ_task_id_blocks::1024          225                       # Occupied blocks per task id
system.cpu.dcache.tags.age_task_id_blocks_1024::0           34                       # Occupied blocks per task id
system.cpu.dcache.tags.age_task_id_blocks_1024::1          191                       # Occupied blocks per task id
system.cpu.dcache.tags.occ_task_id_percent::1024     0.219727                       # Percentage of cache occupancy per task id
system.cpu.dcache.tags.tag_accesses             11226                       # Number of tag accesses
system.cpu.dcache.tags.data_accesses            11226                       # Number of data accesses
system.cpu.dcache.tags.power_state.pwrStateResidencyTicks::UNDEFINED     69692829                       # Cumulative time (in ticks) in various power states
system.cpu.dtb.instHits                             0                       # ITB inst hits
system.cpu.dtb.instMisses                           0                       # ITB inst misses
system.cpu.dtb.readHits                             0                       # DTB read hits
system.cpu.dtb.readMisses                           0                       # DTB read misses
system.cpu.dtb.writeHits                            0                       # DTB write hits
system.cpu.dtb.writeMisses                          0                       # DTB write misses
system.cpu.dtb.inserts                              0                       # Number of times an entry is inserted into the TLB
system.cpu.dtb.flushTlb                             0                       # Number of times complete TLB was flushed
system.cpu.dtb.flushTlbMva                          0                       # Number of times TLB was flushed by MVA
system.cpu.dtb.flushTlbMvaAsid                      0                       # Number of times TLB was flushed by MVA & ASID
system.cpu.dtb.flushTlbAsid                         0                       # Number of times TLB was flushed by ASID
system.cpu.dtb.flushedEntries                       0                       # Number of entries that have been flushed from TLB
system.cpu.dtb.alignFaults                          0                       # Number of TLB faults due to alignment restrictions
system.cpu.dtb.prefetchFaults                       0                       # Number of TLB faults due to prefetch
system.cpu.dtb.domainFaults                         0                       # Number of TLB faults due to domain restrictions
system.cpu.dtb.permsFaults                          0                       # Number of TLB faults due to permissions restrictions
system.cpu.dtb.readAccesses                         0                       # DTB read accesses
system.cpu.dtb.writeAccesses                        0                       # DTB write accesses
system.cpu.dtb.instAccesses                         0                       # ITB inst accesses
system.cpu.dtb.hits                                 0                       # Total TLB (inst and data) hits
system.cpu.dtb.misses                               0                       # Total TLB (inst and data) misses
system.cpu.dtb.accesses                             0                       # Total TLB (inst and data) accesses
system.cpu.dtb.stage2_mmu.stage2_tlb.instHits            0                       # ITB inst hits
system.cpu.dtb.stage2_mmu.stage2_tlb.instMisses            0                       # ITB inst misses
system.cpu.dtb.stage2_mmu.stage2_tlb.readHits            0                       # DTB read hits
system.cpu.dtb.stage2_mmu.stage2_tlb.readMisses            0                       # DTB read misses
system.cpu.dtb.stage2_mmu.stage2_tlb.writeHits            0                       # DTB write hits
system.cpu.dtb.stage2_mmu.stage2_tlb.writeMisses            0                       # DTB write misses
system.cpu.dtb.stage2_mmu.stage2_tlb.inserts            0                       # Number of times an entry is inserted into the TLB
system.cpu.dtb.stage2_mmu.stage2_tlb.flushTlb            0                       # Number of times complete TLB was flushed
system.cpu.dtb.stage2_mmu.stage2_tlb.flushTlbMva            0                       # Number of times TLB was flushed by MVA
system.cpu.dtb.stage2_mmu.stage2_tlb.flushTlbMvaAsid            0                       # Number of times TLB was flushed by MVA & ASID
system.cpu.dtb.stage2_mmu.stage2_tlb.flushTlbAsid            0                       # Number of times TLB was flushed by ASID
system.cpu.dtb.stage2_mmu.stage2_tlb.flushedEntries            0                       # Number of entries that have been flushed from TLB
system.cpu.dtb.stage2_mmu.stage2_tlb.alignFaults            0                       # Number of TLB faults due to alignment restrictions
system.cpu.dtb.stage2_mmu.stage2_tlb.prefetchFaults            0                       # Number of TLB faults due to prefetch
system.cpu.dtb.stage2_mmu.stage2_tlb.domainFaults            0                       # Number of TLB faults due to domain restrictions
system.cpu.dtb.stage2_mmu.stage2_tlb.permsFaults            0                       # Number of TLB faults due to permissions restrictions
system.cpu.dtb.stage2_mmu.stage2_tlb.readAccesses            0                       # DTB read accesses
system.cpu.dtb.stage2_mmu.stage2_tlb.writeAccesses            0                       # DTB write accesses
system.cpu.dtb.stage2_mmu.stage2_tlb.instAccesses            0                       # ITB inst accesses
system.cpu.dtb.stage2_mmu.stage2_tlb.hits            0                       # Total TLB (inst and data) hits
system.cpu.dtb.stage2_mmu.stage2_tlb.misses            0                       # Total TLB (inst and data) misses
system.cpu.dtb.stage2_mmu.stage2_tlb.accesses            0                       # Total TLB (inst and data) accesses
system.cpu.dtb.stage2_mmu.stage2_tlb.walker.walks            0                       # Table walker walks requested
system.cpu.dtb.stage2_mmu.stage2_tlb.walker.requestOrigin_Requested::Data            0                       # Table walker requests started/completed, data/inst
system.cpu.dtb.stage2_mmu.stage2_tlb.walker.requestOrigin_Requested::Inst            0                       # Table walker requests started/completed, data/inst
system.cpu.dtb.stage2_mmu.stage2_tlb.walker.requestOrigin_Requested::total            0                       # Table walker requests started/completed, data/inst
system.cpu.dtb.stage2_mmu.stage2_tlb.walker.requestOrigin_Completed::Data            0                       # Table walker requests started/completed, data/inst
system.cpu.dtb.stage2_mmu.stage2_tlb.walker.requestOrigin_Completed::Inst            0                       # Table walker requests started/completed, data/inst
system.cpu.dtb.stage2_mmu.stage2_tlb.walker.requestOrigin_Completed::total            0                       # Table walker requests started/completed, data/inst
system.cpu.dtb.stage2_mmu.stage2_tlb.walker.requestOrigin::total            0                       # Table walker requests started/completed, data/inst
system.cpu.dtb.stage2_mmu.stage2_tlb.walker.power_state.pwrStateResidencyTicks::UNDEFINED     69692829                       # Cumulative time (in ticks) in various power states
system.cpu.dtb.walker.walks                         0                       # Table walker walks requested
system.cpu.dtb.walker.requestOrigin_Requested::Data            0                       # Table walker requests started/completed, data/inst
system.cpu.dtb.walker.requestOrigin_Requested::Inst            0                       # Table walker requests started/completed, data/inst
system.cpu.dtb.walker.requestOrigin_Requested::total            0                       # Table walker requests started/completed, data/inst
system.cpu.dtb.walker.requestOrigin_Completed::Data            0                       # Table walker requests started/completed, data/inst
system.cpu.dtb.walker.requestOrigin_Completed::Inst            0                       # Table walker requests started/completed, data/inst
system.cpu.dtb.walker.requestOrigin_Completed::total            0                       # Table walker requests started/completed, data/inst
system.cpu.dtb.walker.requestOrigin::total            0                       # Table walker requests started/completed, data/inst
system.cpu.dtb.walker.power_state.pwrStateResidencyTicks::UNDEFINED     69692829                       # Cumulative time (in ticks) in various power states
system.cpu.fetch2.intInstructions               15125                       # Number of integer instructions successfully decoded
system.cpu.fetch2.fpInstructions                    0                       # Number of floating point instructions successfully decoded
system.cpu.fetch2.vecInstructions                   0                       # Number of SIMD instructions successfully decoded
system.cpu.fetch2.loadInstructions               4120                       # Number of memory load instructions successfully decoded
system.cpu.fetch2.storeInstructions              1778                       # Number of memory store instructions successfully decoded
system.cpu.fetch2.amoInstructions                   0                       # Number of memory atomic instructions successfully decoded
system.cpu.icache.demand_hits::.cpu.inst         5358                       # number of demand (read+write) hits
system.cpu.icache.demand_hits::total             5358                       # number of demand (read+write) hits
system.cpu.icache.overall_hits::.cpu.inst         5358                       # number of overall hits
system.cpu.icache.overall_hits::total            5358                       # number of overall hits
system.cpu.icache.demand_misses::.cpu.inst          563                       # number of demand (read+write) misses
system.cpu.icache.demand_misses::total            563                       # number of demand (read+write) misses
system.cpu.icache.overall_misses::.cpu.inst          563                       # number of overall misses
system.cpu.icache.overall_misses::total           563                       # number of overall misses
system.cpu.icache.demand_miss_latency::.cpu.inst     46514579                       # number of demand (read+write) miss cycles
system.cpu.icache.demand_miss_latency::total     46514579                       # number of demand (read+write) miss cycles
system.cpu.icache.overall_miss_latency::.cpu.inst     46514579                       # number of overall miss cycles
system.cpu.icache.overall_miss_latency::total     46514579                       # number of overall miss cycles
system.cpu.icache.demand_accesses::.cpu.inst         5921                       # number of demand (read+write) accesses
system.cpu.icache.demand_accesses::total         5921                       # number of demand (read+write) accesses
system.cpu.icache.overall_accesses::.cpu.inst         5921                       # number of overall (read+write) accesses
system.cpu.icache.overall_accesses::total         5921                       # number of overall (read+write) accesses
system.cpu.icache.demand_miss_rate::.cpu.inst     0.095085                       # miss rate for demand accesses
system.cpu.icache.demand_miss_rate::total     0.095085                       # miss rate for demand accesses
system.cpu.icache.overall_miss_rate::.cpu.inst     0.095085                       # miss rate for overall accesses
system.cpu.icache.overall_miss_rate::total     0.095085                       # miss rate for overall accesses
system.cpu.icache.demand_avg_miss_latency::.cpu.inst 82619.145648                       # average overall miss latency
system.cpu.icache.demand_avg_miss_latency::total 82619.145648                       # average overall miss latency
system.cpu.icache.overall_avg_miss_latency::.cpu.inst 82619.145648                       # average overall miss latency
system.cpu.icache.overall_avg_miss_latency::total 82619.145648                       # average overall miss latency
system.cpu.icache.blocked_cycles::no_mshrs            0                       # number of cycles access was blocked
system.cpu.icache.blocked_cycles::no_targets            0                       # number of cycles access was blocked
system.cpu.icache.blocked::no_mshrs                 0                       # number of cycles access was blocked
system.cpu.icache.blocked::no_targets               0                       # number of cycles access was blocked
system.cpu.icache.avg_blocked_cycles::no_mshrs          nan                       # average number of cycles each access was blocked
system.cpu.icache.avg_blocked_cycles::no_targets          nan                       # average number of cycles each access was blocked
system.cpu.icache.writebacks::.writebacks          199                       # number of writebacks
system.cpu.icache.writebacks::total               199                       # number of writebacks
system.cpu.icache.demand_mshr_misses::.cpu.inst          563                       # number of demand (read+write) MSHR misses
system.cpu.icache.demand_mshr_misses::total          563                       # number of demand (read+write) MSHR misses
system.cpu.icache.overall_mshr_misses::.cpu.inst          563                       # number of overall MSHR misses
system.cpu.icache.overall_mshr_misses::total          563                       # number of overall MSHR misses
system.cpu.icache.demand_mshr_miss_latency::.cpu.inst     45763537                       # number of demand (read+write) MSHR miss cycles
system.cpu.icache.demand_mshr_miss_latency::total     45763537                       # number of demand (read+write) MSHR miss cycles
system.cpu.icache.overall_mshr_miss_latency::.cpu.inst     45763537                       # number of overall MSHR miss cycles
system.cpu.icache.overall_mshr_miss_latency::total     45763537                       # number of overall MSHR miss cycles
system.cpu.icache.demand_mshr_miss_rate::.cpu.inst     0.095085                       # mshr miss rate for demand accesses
system.cpu.icache.demand_mshr_miss_rate::total     0.095085                       # mshr miss rate for demand accesses
system.cpu.icache.overall_mshr_miss_rate::.cpu.inst     0.095085                       # mshr miss rate for overall accesses
system.cpu.icache.overall_mshr_miss_rate::total     0.095085                       # mshr miss rate for overall accesses
system.cpu.icache.demand_avg_mshr_miss_latency::.cpu.inst 81285.145648                       # average overall mshr miss latency
system.cpu.icache.demand_avg_mshr_miss_latency::total 81285.145648                       # average overall mshr miss latency
system.cpu.icache.overall_avg_mshr_miss_latency::.cpu.inst 81285.145648                       # average overall mshr miss latency
system.cpu.icache.overall_avg_mshr_miss_latency::total 81285.145648                       # average overall mshr miss latency
system.cpu.icache.replacements                    199                       # number of replacements
system.cpu.icache.ReadReq_hits::.cpu.inst         5358                       # number of ReadReq hits
system.cpu.icache.ReadReq_hits::total            5358                       # number of ReadReq hits
system.cpu.icache.ReadReq_misses::.cpu.inst          563                       # number of ReadReq misses
system.cpu.icache.ReadReq_misses::total           563                       # number of ReadReq misses
system.cpu.icache.ReadReq_miss_latency::.cpu.inst     46514579                       # number of ReadReq miss cycles
system.cpu.icache.ReadReq_miss_latency::total     46514579                       # number of ReadReq miss cycles
system.cpu.icache.ReadReq_accesses::.cpu.inst         5921                       # number of ReadReq accesses(hits+misses)
system.cpu.icache.ReadReq_accesses::total         5921                       # number of ReadReq accesses(hits+misses)
system.cpu.icache.ReadReq_miss_rate::.cpu.inst     0.095085                       # miss rate for ReadReq accesses
system.cpu.icache.ReadReq_miss_rate::total     0.095085                       # miss rate for ReadReq accesses
system.cpu.icache.ReadReq_avg_miss_latency::.cpu.inst 82619.145648                       # average ReadReq miss latency
system.cpu.icache.ReadReq_avg_miss_latency::total 82619.145648                       # average ReadReq miss latency
system.cpu.icache.ReadReq_mshr_misses::.cpu.inst          563                       # number of ReadReq MSHR misses
system.cpu.icache.ReadReq_mshr_misses::total          563                       # number of ReadReq MSHR misses
system.cpu.icache.ReadReq_mshr_miss_latency::.cpu.inst     45763537                       # number of ReadReq MSHR miss cycles
system.cpu.icache.ReadReq_mshr_miss_latency::total     45763537                       # number of ReadReq MSHR miss cycles
system.cpu.icache.ReadReq_mshr_miss_rate::.cpu.inst     0.095085                       # mshr miss rate for ReadReq accesses
system.cpu.icache.ReadReq_mshr_miss_rate::total     0.095085                       # mshr miss rate for ReadReq accesses
system.cpu.icache.ReadReq_avg_mshr_miss_latency::.cpu.inst 81285.145648                       # average ReadReq mshr miss latency
system.cpu.icache.ReadReq_avg_mshr_miss_latency::total 81285.145648                       # average ReadReq mshr miss latency
system.cpu.icache.power_state.pwrStateResidencyTicks::UNDEFINED     69692829                       # Cumulative time (in ticks) in various power states
system.cpu.icache.tags.tagsinuse           216.931333                       # Cycle average of tags in use
system.cpu.icache.tags.total_refs                5921                       # Total number of references to valid blocks.
system.cpu.icache.tags.sampled_refs               563                       # Sample count of references to valid blocks.
system.cpu.icache.tags.avg_refs             10.516874                       # Average number of references to valid blocks.
system.cpu.icache.tags.warmup_cycle             94047                       # Cycle when the warmup percentage was hit.
system.cpu.icache.tags.occ_blocks::.cpu.inst   216.931333                       # Average occupied blocks per requestor
system.cpu.icache.tags.occ_percent::.cpu.inst     0.423694                       # Average percentage of cache occupancy
system.cpu.icache.tags.occ_percent::total     0.423694                       # Average percentage of cache occupancy
system.cpu.icache.tags.occ_task_id_blocks::1024          364                       # Occupied blocks per task id
system.cpu.icache.tags.age_task_id_blocks_1024::0           92                       # Occupied blocks per task id
system.cpu.icache.tags.age_task_id_blocks_1024::1          272                       # Occupied blocks per task id
system.cpu.icache.tags.occ_task_id_percent::1024     0.710938                       # Percentage of cache occupancy per task id
system.cpu.icache.tags.tag_accesses             12405                       # Number of tag accesses
system.cpu.icache.tags.data_accesses            12405                       # Number of data accesses
system.cpu.icache.tags.power_state.pwrStateResidencyTicks::UNDEFINED     69692829                       # Cumulative time (in ticks) in various power states
system.cpu.itb.instHits                             0                       # ITB inst hits
system.cpu.itb.instMisses                           0                       # ITB inst misses
system.cpu.itb.readHits                             0                       # DTB read hits
system.cpu.itb.readMisses                           0                       # DTB read misses
system.cpu.itb.writeHits                            0                       # DTB write hits
system.cpu.itb.writeMisses                          0                       # DTB write misses
system.cpu.itb.inserts                              0                       # Number of times an entry is inserted into the TLB
system.cpu.itb.flushTlb                             0                       # Number of times complete TLB was flushed
system.cpu.itb.flushTlbMva                          0                       # Number of times TLB was flushed by MVA
system.cpu.itb.flushTlbMvaAsid                      0                       # Number of times TLB was flushed by MVA & ASID
system.cpu.itb.flushTlbAsid                         0                       # Number of times TLB was flushed by ASID
system.cpu.itb.flushedEntries                       0                       # Number of entries that have been flushed from TLB
system.cpu.itb.alignFaults                          0                       # Number of TLB faults due to alignment restrictions
system.cpu.itb.prefetchFaults                       0                       # Number of TLB faults due to prefetch
system.cpu.itb.domainFaults                         0                       # Number of TLB faults due to domain restrictions
system.cpu.itb.permsFaults                          0                       # Number of TLB faults due to permissions restrictions
system.cpu.itb.readAccesses                         0                       # DTB read accesses
system.cpu.itb.writeAccesses                        0                       # DTB write accesses
system.cpu.itb.instAccesses                         0                       # ITB inst accesses
system.cpu.itb.hits                                 0                       # Total TLB (inst and data) hits
system.cpu.itb.misses                               0                       # Total TLB (inst and data) misses
system.cpu.itb.accesses                             0                       # Total TLB (inst and data) accesses
system.cpu.itb.stage2_mmu.stage2_tlb.instHits            0                       # ITB inst hits
system.cpu.itb.stage2_mmu.stage2_tlb.instMisses            0                       # ITB inst misses
system.cpu.itb.stage2_mmu.stage2_tlb.readHits            0                       # DTB read hits
system.cpu.itb.stage2_mmu.stage2_tlb.readMisses            0                       # DTB read misses
system.cpu.itb.stage2_mmu.stage2_tlb.writeHits            0                       # DTB write hits
system.cpu.itb.stage2_mmu.stage2_tlb.writeMisses            0                       # DTB write misses
system.cpu.itb.stage2_mmu.stage2_tlb.inserts            0                       # Number of times an entry is inserted into the TLB
system.cpu.itb.stage2_mmu.stage2_tlb.flushTlb            0                       # Number of times complete TLB was flushed
system.cpu.itb.stage2_mmu.stage2_tlb.flushTlbMva            0                       # Number of times TLB was flushed by MVA
system.cpu.itb.stage2_mmu.stage2_tlb.flushTlbMvaAsid            0                       # Number of times TLB was flushed by MVA & ASID
system.cpu.itb.stage2_mmu.stage2_tlb.flushTlbAsid            0                       # Number of times TLB was flushed by ASID
system.cpu.itb.stage2_mmu.stage2_tlb.flushedEntries            0                       # Number of entries that have been flushed from TLB
system.cpu.itb.stage2_mmu.stage2_tlb.alignFaults            0                       # Number of TLB faults due to alignment restrictions
system.cpu.itb.stage2_mmu.stage2_tlb.prefetchFaults            0                       # Number of TLB faults due to prefetch
system.cpu.itb.stage2_mmu.stage2_tlb.domainFaults            0                       # Number of TLB faults due to domain restrictions
system.cpu.itb.stage2_mmu.stage2_tlb.permsFaults            0                       # Number of TLB faults due to permissions restrictions
system.cpu.itb.stage2_mmu.stage2_tlb.readAccesses            0                       # DTB read accesses
system.cpu.itb.stage2_mmu.stage2_tlb.writeAccesses            0                       # DTB write accesses
system.cpu.itb.stage2_mmu.stage2_tlb.instAccesses            0                       # ITB inst accesses
system.cpu.itb.stage2_mmu.stage2_tlb.hits            0                       # Total TLB (inst and data) hits
system.cpu.itb.stage2_mmu.stage2_tlb.misses            0                       # Total TLB (inst and data) misses
system.cpu.itb.stage2_mmu.stage2_tlb.accesses            0                       # Total TLB (inst and data) accesses
system.cpu.itb.stage2_mmu.stage2_tlb.walker.walks            0                       # Table walker walks requested
system.cpu.itb.stage2_mmu.stage2_tlb.walker.requestOrigin_Requested::Data            0                       # Table walker requests started/completed, data/inst
system.cpu.itb.stage2_mmu.stage2_tlb.walker.requestOrigin_Requested::Inst            0                       # Table walker requests started/completed, data/inst
system.cpu.itb.stage2_mmu.stage2_tlb.walker.requestOrigin_Requested::total            0                       # Table walker requests started/completed, data/inst
system.cpu.itb.stage2_mmu.stage2_tlb.walker.requestOrigin_Completed::Data            0                       # Table walker requests started/completed, data/inst
system.cpu.itb.stage2_mmu.stage2_tlb.walker.requestOrigin_Completed::Inst            0                       # Table walker requests started/completed, data/inst
system.cpu.itb.stage2_mmu.stage2_tlb.walker.requestOrigin_Completed::total            0                       # Table walker requests started/completed, data/inst
system.cpu.itb.stage2_mmu.stage2_tlb.walker.requestOrigin::total            0                       # Table walker requests started/completed, data/inst
system.cpu.itb.stage2_mmu.stage2_tlb.walker.power_state.pwrStateResidencyTicks::UNDEFINED     69692829                       # Cumulative time (in ticks) in various power states
system.cpu.itb.walker.walks                         0                       # Table walker walks requested
system.cpu.itb.walker.requestOrigin_Requested::Data            0                       # Table walker requests started/completed, data/inst
system.cpu.itb.walker.requestOrigin_Requested::Inst            0                       # Table walker requests started/completed, data/inst
system.cpu.itb.walker.requestOrigin_Requested::total            0                       # Table walker requests started/completed, data/inst
system.cpu.itb.walker.requestOrigin_Completed::Data            0                       # Table walker requests started/completed, data/inst
system.cpu.itb.walker.requestOrigin_Completed::Inst            0                       # Table walker requests started/completed, data/inst
system.cpu.itb.walker.requestOrigin_Completed::total            0                       # Table walker requests started/completed, data/inst
system.cpu.itb.walker.requestOrigin::total            0                       # Table walker requests started/completed, data/inst
system.cpu.itb.walker.power_state.pwrStateResidencyTicks::UNDEFINED     69692829                       # Cumulative time (in ticks) in various power states
system.cpu.power_state.pwrStateResidencyTicks::ON     69692829                       # Cumulative time (in ticks) in various power states
system.cpu.thread_0.numInsts                    15136                       # Number of Instructions committed
system.cpu.thread_0.numOps                      17064                       # Number of Ops committed
system.cpu.thread_0.numMemRefs                      0                       # Number of Memory References
system.cpu_clk_domain.clock                       667                       # Clock period in ticks
system.cpu_voltage_domain.voltage                   1                       # Voltage in Volts
system.l2.demand_hits::.cpu.inst                   32                       # number of demand (read+write) hits
system.l2.demand_hits::.cpu.data                   18                       # number of demand (read+write) hits
system.l2.demand_hits::total                       50                       # number of demand (read+write) hits
system.l2.overall_hits::.cpu.inst                  32                       # number of overall hits
system.l2.overall_hits::.cpu.data                  18                       # number of overall hits
system.l2.overall_hits::total                      50                       # number of overall hits
system.l2.demand_misses::.cpu.inst                531                       # number of demand (read+write) misses
system.l2.demand_misses::.cpu.data                218                       # number of demand (read+write) misses
system.l2.demand_misses::total                    749                       # number of demand (read+write) misses
system.l2.overall_misses::.cpu.inst               531                       # number of overall misses
system.l2.overall_misses::.cpu.data               218                       # number of overall misses
system.l2.overall_misses::total                   749                       # number of overall misses
system.l2.demand_miss_latency::.cpu.inst     44155400                       # number of demand (read+write) miss cycles
system.l2.demand_miss_latency::.cpu.data     20376183                       # number of demand (read+write) miss cycles
system.l2.demand_miss_latency::total         64531583                       # number of demand (read+write) miss cycles
system.l2.overall_miss_latency::.cpu.inst     44155400                       # number of overall miss cycles
system.l2.overall_miss_latency::.cpu.data     20376183                       # number of overall miss cycles
system.l2.overall_miss_latency::total        64531583                       # number of overall miss cycles
system.l2.demand_accesses::.cpu.inst              563                       # number of demand (read+write) accesses
system.l2.demand_accesses::.cpu.data              236                       # number of demand (read+write) accesses
system.l2.demand_accesses::total                  799                       # number of demand (read+write) accesses
system.l2.overall_accesses::.cpu.inst             563                       # number of overall (read+write) accesses
system.l2.overall_accesses::.cpu.data             236                       # number of overall (read+write) accesses
system.l2.overall_accesses::total                 799                       # number of overall (read+write) accesses
system.l2.demand_miss_rate::.cpu.inst        0.943162                       # miss rate for demand accesses
system.l2.demand_miss_rate::.cpu.data        0.923729                       # miss rate for demand accesses
system.l2.demand_miss_rate::total            0.937422                       # miss rate for demand accesses
system.l2.overall_miss_rate::.cpu.inst       0.943162                       # miss rate for overall accesses
system.l2.overall_miss_rate::.cpu.data       0.923729                       # miss rate for overall accesses
system.l2.overall_miss_rate::total           0.937422                       # miss rate for overall accesses
system.l2.demand_avg_miss_latency::.cpu.inst 83155.178908                       # average overall miss latency
system.l2.demand_avg_miss_latency::.cpu.data 93468.729358                       # average overall miss latency
system.l2.demand_avg_miss_latency::total 86156.986649                       # average overall miss latency
system.l2.overall_avg_miss_latency::.cpu.inst 83155.178908                       # average overall miss latency
system.l2.overall_avg_miss_latency::.cpu.data 93468.729358                       # average overall miss latency
system.l2.overall_avg_miss_latency::total 86156.986649                       # average overall miss latency
system.l2.blocked_cycles::no_mshrs                  0                       # number of cycles access was blocked
system.l2.blocked_cycles::no_targets                0                       # number of cycles access was blocked
system.l2.blocked::no_mshrs                         0                       # number of cycles access was blocked
system.l2.blocked::no_targets                       0                       # number of cycles access was blocked
system.l2.avg_blocked_cycles::no_mshrs            nan                       # average number of cycles each access was blocked
system.l2.avg_blocked_cycles::no_targets          nan                       # average number of cycles each access was blocked
system.l2.demand_mshr_hits::.cpu.inst               1                       # number of demand (read+write) MSHR hits
system.l2.demand_mshr_hits::.cpu.data               2                       # number of demand (read+write) MSHR hits
system.l2.demand_mshr_hits::total                   3                       # number of demand (read+write) MSHR hits
system.l2.overall_mshr_hits::.cpu.inst              1                       # number of overall MSHR hits
system.l2.overall_mshr_hits::.cpu.data              2                       # number of overall MSHR hits
system.l2.overall_mshr_hits::total                  3                       # number of overall MSHR hits
system.l2.demand_mshr_misses::.cpu.inst           530                       # number of demand (read+write) MSHR misses
system.l2.demand_mshr_misses::.cpu.data           216                       # number of demand (read+write) MSHR misses
system.l2.demand_mshr_misses::total               746                       # number of demand (read+write) MSHR misses
system.l2.overall_mshr_misses::.cpu.inst          530                       # number of overall MSHR misses
system.l2.overall_mshr_misses::.cpu.data          216                       # number of overall MSHR misses
system.l2.overall_mshr_misses::total              746                       # number of overall MSHR misses
system.l2.demand_mshr_miss_latency::.cpu.inst     36842424                       # number of demand (read+write) MSHR miss cycles
system.l2.demand_mshr_miss_latency::.cpu.data     17277329                       # number of demand (read+write) MSHR miss cycles
system.l2.demand_mshr_miss_latency::total     54119753                       # number of demand (read+write) MSHR miss cycles
system.l2.overall_mshr_miss_latency::.cpu.inst     36842424                       # number of overall MSHR miss cycles
system.l2.overall_mshr_miss_latency::.cpu.data     17277329                       # number of overall MSHR miss cycles
system.l2.overall_mshr_miss_latency::total     54119753                       # number of overall MSHR miss cycles
system.l2.demand_mshr_miss_rate::.cpu.inst     0.941385                       # mshr miss rate for demand accesses
system.l2.demand_mshr_miss_rate::.cpu.data     0.915254                       # mshr miss rate for demand accesses
system.l2.demand_mshr_miss_rate::total       0.933667                       # mshr miss rate for demand accesses
system.l2.overall_mshr_miss_rate::.cpu.inst     0.941385                       # mshr miss rate for overall accesses
system.l2.overall_mshr_miss_rate::.cpu.data     0.915254                       # mshr miss rate for overall accesses
system.l2.overall_mshr_miss_rate::total      0.933667                       # mshr miss rate for overall accesses
system.l2.demand_avg_mshr_miss_latency::.cpu.inst 69514.007547                       # average overall mshr miss latency
system.l2.demand_avg_mshr_miss_latency::.cpu.data 79987.634259                       # average overall mshr miss latency
system.l2.demand_avg_mshr_miss_latency::total 72546.585791                       # average overall mshr miss latency
system.l2.overall_avg_mshr_miss_latency::.cpu.inst 69514.007547                       # average overall mshr miss latency
system.l2.overall_avg_mshr_miss_latency::.cpu.data 79987.634259                       # average overall mshr miss latency
system.l2.overall_avg_mshr_miss_latency::total 72546.585791                       # average overall mshr miss latency
system.l2.replacements                              0                       # number of replacements
system.l2.WritebackDirty_hits::.writebacks            3                       # number of WritebackDirty hits
system.l2.WritebackDirty_hits::total                3                       # number of WritebackDirty hits
system.l2.WritebackDirty_accesses::.writebacks            3                       # number of WritebackDirty accesses(hits+misses)
system.l2.WritebackDirty_accesses::total            3                       # number of WritebackDirty accesses(hits+misses)
system.l2.WritebackClean_hits::.writebacks          187                       # number of WritebackClean hits
system.l2.WritebackClean_hits::total              187                       # number of WritebackClean hits
system.l2.WritebackClean_accesses::.writebacks          187                       # number of WritebackClean accesses(hits+misses)
system.l2.WritebackClean_accesses::total          187                       # number of WritebackClean accesses(hits+misses)
system.l2.ReadExReq_misses::.cpu.data              83                       # number of ReadExReq misses
system.l2.ReadExReq_misses::total                  83                       # number of ReadExReq misses
system.l2.ReadExReq_miss_latency::.cpu.data      7875936                       # number of ReadExReq miss cycles
system.l2.ReadExReq_miss_latency::total       7875936                       # number of ReadExReq miss cycles
system.l2.ReadExReq_accesses::.cpu.data            83                       # number of ReadExReq accesses(hits+misses)
system.l2.ReadExReq_accesses::total                83                       # number of ReadExReq accesses(hits+misses)
system.l2.ReadExReq_miss_rate::.cpu.data            1                       # miss rate for ReadExReq accesses
system.l2.ReadExReq_miss_rate::total                1                       # miss rate for ReadExReq accesses
system.l2.ReadExReq_avg_miss_latency::.cpu.data 94890.795181                       # average ReadExReq miss latency
system.l2.ReadExReq_avg_miss_latency::total 94890.795181                       # average ReadExReq miss latency
system.l2.ReadExReq_mshr_misses::.cpu.data           83                       # number of ReadExReq MSHR misses
system.l2.ReadExReq_mshr_misses::total             83                       # number of ReadExReq MSHR misses
system.l2.ReadExReq_mshr_miss_latency::.cpu.data      6742291                       # number of ReadExReq MSHR miss cycles
system.l2.ReadExReq_mshr_miss_latency::total      6742291                       # number of ReadExReq MSHR miss cycles
system.l2.ReadExReq_mshr_miss_rate::.cpu.data            1                       # mshr miss rate for ReadExReq accesses
system.l2.ReadExReq_mshr_miss_rate::total            1                       # mshr miss rate for ReadExReq accesses
system.l2.ReadExReq_avg_mshr_miss_latency::.cpu.data 81232.421687                       # average ReadExReq mshr miss latency
system.l2.ReadExReq_avg_mshr_miss_latency::total 81232.421687                       # average ReadExReq mshr miss latency
system.l2.ReadCleanReq_hits::.cpu.inst             32                       # number of ReadCleanReq hits
system.l2.ReadCleanReq_hits::total                 32                       # number of ReadCleanReq hits
system.l2.ReadCleanReq_misses::.cpu.inst          531                       # number of ReadCleanReq misses
system.l2.ReadCleanReq_misses::total              531                       # number of ReadCleanReq misses
system.l2.ReadCleanReq_miss_latency::.cpu.inst     44155400                       # number of ReadCleanReq miss cycles
system.l2.ReadCleanReq_miss_latency::total     44155400                       # number of ReadCleanReq miss cycles
system.l2.ReadCleanReq_accesses::.cpu.inst          563                       # number of ReadCleanReq accesses(hits+misses)
system.l2.ReadCleanReq_accesses::total            563                       # number of ReadCleanReq accesses(hits+misses)
system.l2.ReadCleanReq_miss_rate::.cpu.inst     0.943162                       # miss rate for ReadCleanReq accesses
system.l2.ReadCleanReq_miss_rate::total      0.943162                       # miss rate for ReadCleanReq accesses
system.l2.ReadCleanReq_avg_miss_latency::.cpu.inst 83155.178908                       # average ReadCleanReq miss latency
system.l2.ReadCleanReq_avg_miss_latency::total 83155.178908                       # average ReadCleanReq miss latency
system.l2.ReadCleanReq_mshr_hits::.cpu.inst            1                       # number of ReadCleanReq MSHR hits
system.l2.ReadCleanReq_mshr_hits::total             1                       # number of ReadCleanReq MSHR hits
system.l2.ReadCleanReq_mshr_misses::.cpu.inst          530                       # number of ReadCleanReq MSHR misses
system.l2.ReadCleanReq_mshr_misses::total          530                       # number of ReadCleanReq MSHR misses
system.l2.ReadCleanReq_mshr_miss_latency::.cpu.inst     36842424                       # number of ReadCleanReq MSHR miss cycles
system.l2.ReadCleanReq_mshr_miss_latency::total     36842424                       # number of ReadCleanReq MSHR miss cycles
system.l2.ReadCleanReq_mshr_miss_rate::.cpu.inst     0.941385                       # mshr miss rate for ReadCleanReq accesses
system.l2.ReadCleanReq_mshr_miss_rate::total     0.941385                       # mshr miss rate for ReadCleanReq accesses
system.l2.ReadCleanReq_avg_mshr_miss_latency::.cpu.inst 69514.007547                       # average ReadCleanReq mshr miss latency
system.l2.ReadCleanReq_avg_mshr_miss_latency::total 69514.007547                       # average ReadCleanReq mshr miss latency
system.l2.ReadSharedReq_hits::.cpu.data            18                       # number of ReadSharedReq hits
system.l2.ReadSharedReq_hits::total                18                       # number of ReadSharedReq hits
system.l2.ReadSharedReq_misses::.cpu.data          135                       # number of ReadSharedReq misses
system.l2.ReadSharedReq_misses::total             135                       # number of ReadSharedReq misses
system.l2.ReadSharedReq_miss_latency::.cpu.data     12500247                       # number of ReadSharedReq miss cycles
system.l2.ReadSharedReq_miss_latency::total     12500247                       # number of ReadSharedReq miss cycles
system.l2.ReadSharedReq_accesses::.cpu.data          153                       # number of ReadSharedReq accesses(hits+misses)
system.l2.ReadSharedReq_accesses::total           153                       # number of ReadSharedReq accesses(hits+misses)
system.l2.ReadSharedReq_miss_rate::.cpu.data     0.882353                       # miss rate for ReadSharedReq accesses
system.l2.ReadSharedReq_miss_rate::total     0.882353                       # miss rate for ReadSharedReq accesses
system.l2.ReadSharedReq_avg_miss_latency::.cpu.data 92594.422222                       # average ReadSharedReq miss latency
system.l2.ReadSharedReq_avg_miss_latency::total 92594.422222                       # average ReadSharedReq miss latency
system.l2.ReadSharedReq_mshr_hits::.cpu.data            2                       # number of ReadSharedReq MSHR hits
system.l2.ReadSharedReq_mshr_hits::total            2                       # number of ReadSharedReq MSHR hits
system.l2.ReadSharedReq_mshr_misses::.cpu.data          133                       # number of ReadSharedReq MSHR misses
system.l2.ReadSharedReq_mshr_misses::total          133                       # number of ReadSharedReq MSHR misses
system.l2.ReadSharedReq_mshr_miss_latency::.cpu.data     10535038                       # number of ReadSharedReq MSHR miss cycles
system.l2.ReadSharedReq_mshr_miss_latency::total     10535038                       # number of ReadSharedReq MSHR miss cycles
system.l2.ReadSharedReq_mshr_miss_rate::.cpu.data     0.869281                       # mshr miss rate for ReadSharedReq accesses
system.l2.ReadSharedReq_mshr_miss_rate::total     0.869281                       # mshr miss rate for ReadSharedReq accesses
system.l2.ReadSharedReq_avg_mshr_miss_latency::.cpu.data 79210.812030                       # average ReadSharedReq mshr miss latency
system.l2.ReadSharedReq_avg_mshr_miss_latency::total 79210.812030                       # average ReadSharedReq mshr miss latency
system.l2.power_state.pwrStateResidencyTicks::UNDEFINED     69692829                       # Cumulative time (in ticks) in various power states
system.l2.tags.tagsinuse                   387.324954                       # Cycle average of tags in use
system.l2.tags.total_refs                         991                       # Total number of references to valid blocks.
system.l2.tags.sampled_refs                       746                       # Sample count of references to valid blocks.
system.l2.tags.avg_refs                      1.328418                       # Average number of references to valid blocks.
system.l2.tags.warmup_cycle                     80000                       # Cycle when the warmup percentage was hit.
system.l2.tags.occ_blocks::.cpu.inst       265.048727                       # Average occupied blocks per requestor
system.l2.tags.occ_blocks::.cpu.data       122.276227                       # Average occupied blocks per requestor
system.l2.tags.occ_percent::.cpu.inst        0.008089                       # Average percentage of cache occupancy
system.l2.tags.occ_percent::.cpu.data        0.003732                       # Average percentage of cache occupancy
system.l2.tags.occ_percent::total            0.011820                       # Average percentage of cache occupancy
system.l2.tags.occ_task_id_blocks::1024           746                       # Occupied blocks per task id
system.l2.tags.age_task_id_blocks_1024::0          107                       # Occupied blocks per task id
system.l2.tags.age_task_id_blocks_1024::1          639                       # Occupied blocks per task id
system.l2.tags.occ_task_id_percent::1024     0.022766                       # Percentage of cache occupancy per task id
system.l2.tags.tag_accesses                      8698                       # Number of tag accesses
system.l2.tags.data_accesses                     8698                       # Number of data accesses
system.l2.tags.power_state.pwrStateResidencyTicks::UNDEFINED     69692829                       # Cumulative time (in ticks) in various power states
system.mem_ctrls.avgPriority_.cpu.inst::samples       530.00                       # Average QoS priority value for accepted requests
system.mem_ctrls.avgPriority_.cpu.data::samples       216.00                       # Average QoS priority value for accepted requests
system.mem_ctrls.priorityMinLatency      0.000000018750                       # per QoS priority minimum request to response latency (s)
system.mem_ctrls.priorityMaxLatency      0.000000566146                       # per QoS priority maximum request to response latency (s)
system.mem_ctrls.numReadWriteTurnArounds            0                       # Number of turnarounds from READ to WRITE
system.mem_ctrls.numWriteReadTurnArounds            0                       # Number of turnarounds from WRITE to READ
system.mem_ctrls.numStayReadState                1498                       # Number of times bus staying in READ state
system.mem_ctrls.numStayWriteState                  0                       # Number of times bus staying in WRITE state
system.mem_ctrls.readReqs                         746                       # Number of read requests accepted
system.mem_ctrls.writeReqs                          0                       # Number of write requests accepted
system.mem_ctrls.readBursts                       746                       # Number of controller read bursts, including those serviced by the write queue
system.mem_ctrls.writeBursts                        0                       # Number of controller write bursts, including those merged in the write queue
system.mem_ctrls.servicedByWrQ                      0                       # Number of controller read bursts serviced by the write queue
system.mem_ctrls.mergedWrBursts                     0                       # Number of controller write bursts merged with an existing one
system.mem_ctrls.neitherReadNorWriteReqs            0                       # Number of requests that are neither read nor write
system.mem_ctrls.avgRdQLen                       1.15                       # Average read queue length when enqueuing
system.mem_ctrls.avgWrQLen                       0.00                       # Average write queue length when enqueuing
system.mem_ctrls.numRdRetry                         0                       # Number of times read queue was full causing retry
system.mem_ctrls.numWrRetry                         0                       # Number of times write queue was full causing retry
system.mem_ctrls.readPktSize::0                     0                       # Read request sizes (log2)
system.mem_ctrls.readPktSize::1                     0                       # Read request sizes (log2)
system.mem_ctrls.readPktSize::2                     0                       # Read request sizes (log2)
system.mem_ctrls.readPktSize::3                     0                       # Read request sizes (log2)
system.mem_ctrls.readPktSize::4                     0                       # Read request sizes (log2)
system.mem_ctrls.readPktSize::5                     0                       # Read request sizes (log2)
system.mem_ctrls.readPktSize::6                   746                       # Read request sizes (log2)
system.mem_ctrls.writePktSize::0                    0                       # Write request sizes (log2)
system.mem_ctrls.writePktSize::1                    0                       # Write request sizes (log2)
system.mem_ctrls.writePktSize::2                    0                       # Write request sizes (log2)
system.mem_ctrls.writePktSize::3                    0                       # Write request sizes (log2)
system.mem_ctrls.writePktSize::4                    0                       # Write request sizes (log2)
system.mem_ctrls.writePktSize::5                    0                       # Write request sizes (log2)
system.mem_ctrls.writePktSize::6                    0                       # Write request sizes (log2)
system.mem_ctrls.rdQLenPdf::0                     641                       # What read queue length does an incoming req see
system.mem_ctrls.rdQLenPdf::1                      96                       # What read queue length does an incoming req see
[...]
system.mem_ctrls.dram.bw_read::.cpu.data    198356132                       # Total read bandwidth from this memory (bytes/s)
system.mem_ctrls.dram.bw_read::total        685063308                       # Total read bandwidth from this memory (bytes/s)
system.mem_ctrls.dram.bw_inst_read::.cpu.inst    486707176                       # Instruction read bandwidth from this memory (bytes/s)
system.mem_ctrls.dram.bw_inst_read::total    486707176                       # Instruction read bandwidth from this memory (bytes/s)
system.mem_ctrls.dram.bw_total::.cpu.inst    486707176                       # Total bandwidth to/from this memory (bytes/s)
system.mem_ctrls.dram.bw_total::.cpu.data    198356132                       # Total bandwidth to/from this memory (bytes/s)
system.mem_ctrls.dram.bw_total::total       685063308                       # Total bandwidth to/from this memory (bytes/s)
system.mem_ctrls.dram.readBursts                  746                       # Number of DRAM read bursts
system.mem_ctrls.dram.writeBursts                   0                       # Number of DRAM write bursts
system.mem_ctrls.dram.perBankRdBursts::0           79                       # Per bank write bursts
system.mem_ctrls.dram.perBankRdBursts::1           71                       # Per bank write bursts
system.mem_ctrls.dram.perBankRdBursts::2           35                       # Per bank write bursts
system.mem_ctrls.dram.perBankRdBursts::3           81                       # Per bank write bursts
system.mem_ctrls.dram.perBankRdBursts::4           52                       # Per bank write bursts
system.mem_ctrls.dram.perBankRdBursts::5            1                       # Per bank write bursts
system.mem_ctrls.dram.perBankRdBursts::6           28                       # Per bank write bursts
system.mem_ctrls.dram.perBankRdBursts::7           38                       # Per bank write bursts
system.mem_ctrls.dram.perBankRdBursts::8           58                       # Per bank write bursts
system.mem_ctrls.dram.perBankRdBursts::9           47                       # Per bank write bursts
system.mem_ctrls.dram.perBankRdBursts::10           61                       # Per bank write bursts
system.mem_ctrls.dram.perBankRdBursts::11           15                       # Per bank write bursts
system.mem_ctrls.dram.perBankRdBursts::12            0                       # Per bank write bursts
system.mem_ctrls.dram.perBankRdBursts::13           37                       # Per bank write bursts
system.mem_ctrls.dram.perBankRdBursts::14           91                       # Per bank write bursts
system.mem_ctrls.dram.perBankRdBursts::15           52                       # Per bank write bursts
system.mem_ctrls.dram.perBankWrBursts::0            0                       # Per bank write bursts
system.mem_ctrls.dram.perBankWrBursts::1            0                       # Per bank write bursts
system.mem_ctrls.dram.perBankWrBursts::2            0                       # Per bank write bursts
system.mem_ctrls.dram.perBankWrBursts::3            0                       # Per bank write bursts
system.mem_ctrls.dram.perBankWrBursts::4            0                       # Per bank write bursts
system.mem_ctrls.dram.perBankWrBursts::5            0                       # Per bank write bursts
system.mem_ctrls.dram.perBankWrBursts::6            0                       # Per bank write bursts
system.mem_ctrls.dram.perBankWrBursts::7            0                       # Per bank write bursts
system.mem_ctrls.dram.perBankWrBursts::8            0                       # Per bank write bursts
system.mem_ctrls.dram.perBankWrBursts::9            0                       # Per bank write bursts
system.mem_ctrls.dram.perBankWrBursts::10            0                       # Per bank write bursts
system.mem_ctrls.dram.perBankWrBursts::11            0                       # Per bank write bursts
system.mem_ctrls.dram.perBankWrBursts::12            0                       # Per bank write bursts
system.mem_ctrls.dram.perBankWrBursts::13            0                       # Per bank write bursts
system.mem_ctrls.dram.perBankWrBursts::14            0                       # Per bank write bursts
system.mem_ctrls.dram.perBankWrBursts::15            0                       # Per bank write bursts
system.mem_ctrls.dram.totQLat                 6613779                       # Total ticks spent queuing
system.mem_ctrls.dram.totBusLat               3730000                       # Total ticks spent in databus transfers
system.mem_ctrls.dram.totMemAccLat           20601279                       # Total ticks spent from burst creation until serviced by the DRAM
system.mem_ctrls.dram.avgQLat                 8865.66                       # Average queueing delay per DRAM burst
system.mem_ctrls.dram.avgBusLat               5000.00                       # Average bus latency per DRAM burst
system.mem_ctrls.dram.avgMemAccLat           27615.66                       # Average memory access latency per DRAM burst
system.mem_ctrls.dram.readRowHits                 554                       # Number of row buffer hits during reads
system.mem_ctrls.dram.writeRowHits                  0                       # Number of row buffer hits during writes
system.mem_ctrls.dram.readRowHitRate            74.26                       # Row buffer hit rate for reads
system.mem_ctrls.dram.writeRowHitRate             nan                       # Row buffer hit rate for writes
system.mem_ctrls.dram.bytesPerActivate::samples          184                       # Bytes accessed per row activation
system.mem_ctrls.dram.bytesPerActivate::mean   250.782609                       # Bytes accessed per row activation
system.mem_ctrls.dram.bytesPerActivate::gmean   164.207647                       # Bytes accessed per row activation
system.mem_ctrls.dram.bytesPerActivate::stdev   260.840668                       # Bytes accessed per row activation
system.mem_ctrls.dram.bytesPerActivate::0-127           65     35.33%     35.33% # Bytes accessed per row activation
system.mem_ctrls.dram.bytesPerActivate::128-255           55     29.89%     65.22% # Bytes accessed per row activation
system.mem_ctrls.dram.bytesPerActivate::256-383           25     13.59%     78.80% # Bytes accessed per row activation
system.mem_ctrls.dram.bytesPerActivate::384-511           12      6.52%     85.33% # Bytes accessed per row activation
system.mem_ctrls.dram.bytesPerActivate::512-639            8      4.35%     89.67% # Bytes accessed per row activation
system.mem_ctrls.dram.bytesPerActivate::640-767            3      1.63%     91.30% # Bytes accessed per row activation
system.mem_ctrls.dram.bytesPerActivate::768-895            4      2.17%     93.48% # Bytes accessed per row activation
system.mem_ctrls.dram.bytesPerActivate::896-1023            2      1.09%     94.57% # Bytes accessed per row activation
system.mem_ctrls.dram.bytesPerActivate::1024-1151           10      5.43%    100.00% # Bytes accessed per row activation
system.mem_ctrls.dram.bytesPerActivate::total          184                       # Bytes accessed per row activation
system.mem_ctrls.dram.bytesRead                 47744                       # Total number of bytes read from DRAM
system.mem_ctrls.dram.bytesWritten                  0                       # Total number of bytes written to DRAM
system.mem_ctrls.dram.avgRdBW              685.063308                       # Average DRAM read bandwidth in MiBytes/s
system.mem_ctrls.dram.avgWrBW                       0                       # Average DRAM write bandwidth in MiBytes/s
system.mem_ctrls.dram.peakBW                 12800.00                       # Theoretical peak bandwidth in MiByte/s
system.mem_ctrls.dram.busUtil                    5.35                       # Data bus utilization in percentage
system.mem_ctrls.dram.busUtilRead                5.35                       # Data bus utilization in percentage for reads
system.mem_ctrls.dram.busUtilWrite               0.00                       # Data bus utilization in percentage for writes
system.mem_ctrls.dram.pageHitRate               74.26                       # Row buffer hit rate, read and write combined
system.mem_ctrls.dram.power_state.pwrStateResidencyTicks::UNDEFINED     69692829                       # Cumulative time (in ticks) in various power states
system.mem_ctrls.dram.rank0.actEnergy          656880                       # Energy for activate commands per rank (pJ)
system.mem_ctrls.dram.rank0.preEnergy          326370                       # Energy for precharge commands per rank (pJ)
system.mem_ctrls.dram.rank0.readEnergy        2748900                       # Energy for read commands per rank (pJ)
system.mem_ctrls.dram.rank0.writeEnergy             0                       # Energy for write commands per rank (pJ)
system.mem_ctrls.dram.rank0.refreshEnergy 4917120.000000                       # Energy for refresh commands per rank (pJ)
system.mem_ctrls.dram.rank0.actBackEnergy     30878610                       # Energy for active background per rank (pJ)
system.mem_ctrls.dram.rank0.preBackEnergy       759360                       # Energy for precharge background per rank (pJ)
system.mem_ctrls.dram.rank0.actPowerDownEnergy            0                       # Energy for active power-down per rank (pJ)
system.mem_ctrls.dram.rank0.prePowerDownEnergy            0                       # Energy for precharge power-down per rank (pJ)
system.mem_ctrls.dram.rank0.selfRefreshEnergy            0                       # Energy for self refresh per rank (pJ)
system.mem_ctrls.dram.rank0.totalEnergy      40287240                       # Total energy per rank (pJ)
system.mem_ctrls.dram.rank0.averagePower   578.068656                       # Core power per rank (mW)
system.mem_ctrls.dram.rank0.totalIdleTime            0                       # Total Idle time Per DRAM Rank
system.mem_ctrls.dram.rank0.pwrStateTime::IDLE      1687609                       # Time in different power states
system.mem_ctrls.dram.rank0.pwrStateTime::REF      2080000                       # Time in different power states
system.mem_ctrls.dram.rank0.pwrStateTime::SREF            0                       # Time in different power states
system.mem_ctrls.dram.rank0.pwrStateTime::PRE_PDN            0                       # Time in different power states
system.mem_ctrls.dram.rank0.pwrStateTime::ACT     65925220                       # Time in different power states
system.mem_ctrls.dram.rank0.pwrStateTime::ACT_PDN            0                       # Time in different power states
system.mem_ctrls.dram.rank1.actEnergy          714000                       # Energy for activate commands per rank (pJ)
system.mem_ctrls.dram.rank1.preEnergy          371910                       # Energy for precharge commands per rank (pJ)
system.mem_ctrls.dram.rank1.readEnergy        2577540                       # Energy for read commands per rank (pJ)
system.mem_ctrls.dram.rank1.writeEnergy             0                       # Energy for write commands per rank (pJ)
system.mem_ctrls.dram.rank1.refreshEnergy 4917120.000000                       # Energy for refresh commands per rank (pJ)
system.mem_ctrls.dram.rank1.actBackEnergy     27095520                       # Energy for active background per rank (pJ)
system.mem_ctrls.dram.rank1.preBackEnergy      3945120                       # Energy for precharge background per rank (pJ)
system.mem_ctrls.dram.rank1.actPowerDownEnergy            0                       # Energy for active power-down per rank (pJ)
system.mem_ctrls.dram.rank1.prePowerDownEnergy            0                       # Energy for precharge power-down per rank (pJ)
system.mem_ctrls.dram.rank1.selfRefreshEnergy            0                       # Energy for self refresh per rank (pJ)
system.mem_ctrls.dram.rank1.totalEnergy      39621210                       # Total energy per rank (pJ)
system.mem_ctrls.dram.rank1.averagePower   568.512006                       # Core power per rank (mW)
system.mem_ctrls.dram.rank1.totalIdleTime            0                       # Total Idle time Per DRAM Rank
system.mem_ctrls.dram.rank1.pwrStateTime::IDLE     10038461                       # Time in different power states
system.mem_ctrls.dram.rank1.pwrStateTime::REF      2080000                       # Time in different power states
system.mem_ctrls.dram.rank1.pwrStateTime::SREF            0                       # Time in different power states
system.mem_ctrls.dram.rank1.pwrStateTime::PRE_PDN            0                       # Time in different power states
system.mem_ctrls.dram.rank1.pwrStateTime::ACT     57574368                       # Time in different power states
system.mem_ctrls.dram.rank1.pwrStateTime::ACT_PDN            0                       # Time in different power states
system.mem_ctrls.power_state.pwrStateResidencyTicks::UNDEFINED     69692829                       # Cumulative time (in ticks) in various power states
system.membus.trans_dist::ReadResp                663                       # Transaction distribution
system.membus.trans_dist::ReadExReq                83                       # Transaction distribution
system.membus.trans_dist::ReadExResp               83                       # Transaction distribution
system.membus.trans_dist::ReadSharedReq           663                       # Transaction distribution
system.membus.pkt_count_system.l2.mem_side_port::system.mem_ctrls.port         1492                       # Packet count per connected requestor and responder (bytes)
system.membus.pkt_count::total                   1492                       # Packet count per connected requestor and responder (bytes)
system.membus.pkt_size_system.l2.mem_side_port::system.mem_ctrls.port        47744                       # Cumulative packet size per connected requestor and responder (bytes)
system.membus.pkt_size::total                   47744                       # Cumulative packet size per connected requestor and responder (bytes)
system.membus.snoops                                0                       # Total snoops (count)
system.membus.snoopTraffic                          0                       # Total snoop traffic (bytes)
system.membus.snoop_fanout::samples               746                       # Request fanout histogram
system.membus.snoop_fanout::mean                    0                       # Request fanout histogram
system.membus.snoop_fanout::stdev                   0                       # Request fanout histogram
system.membus.snoop_fanout::underflows              0      0.00%      0.00% # Request fanout histogram
system.membus.snoop_fanout::0                     746    100.00%    100.00% # Request fanout histogram
system.membus.snoop_fanout::1                       0      0.00%    100.00% # Request fanout histogram
system.membus.snoop_fanout::overflows               0      0.00%    100.00% # Request fanout histogram
system.membus.snoop_fanout::min_value               0                       # Request fanout histogram
system.membus.snoop_fanout::max_value               0                       # Request fanout histogram
system.membus.snoop_fanout::total                 746                       # Request fanout histogram
system.membus.power_state.pwrStateResidencyTicks::UNDEFINED     69692829                       # Cumulative time (in ticks) in various power states
system.membus.reqLayer0.occupancy             1151865                       # Layer occupancy (ticks)
system.membus.reqLayer0.utilization               1.7                       # Layer utilization (%)
system.membus.respLayer1.occupancy            3981509                       # Layer occupancy (ticks)
system.membus.respLayer1.utilization              5.7                       # Layer utilization (%)
system.tol2bus.trans_dist::ReadResp               716                       # Transaction distribution
system.tol2bus.trans_dist::WritebackDirty            3                       # Transaction distribution
system.tol2bus.trans_dist::WritebackClean          199                       # Transaction distribution
system.tol2bus.trans_dist::CleanEvict               8                       # Transaction distribution
system.tol2bus.trans_dist::ReadExReq               83                       # Transaction distribution
system.tol2bus.trans_dist::ReadExResp              83                       # Transaction distribution
system.tol2bus.trans_dist::ReadCleanReq           563                       # Transaction distribution
system.tol2bus.trans_dist::ReadSharedReq          153                       # Transaction distribution
system.tol2bus.pkt_count_system.cpu.icache.mem_side_port::system.l2.cpu_side_port         1325                       # Packet count per connected requestor and responder (bytes)
system.tol2bus.pkt_count_system.cpu.dcache.mem_side_port::system.l2.cpu_side_port          483                       # Packet count per connected requestor and responder (bytes)
system.tol2bus.pkt_count::total                  1808                       # Packet count per connected requestor and responder (bytes)
system.tol2bus.pkt_size_system.cpu.icache.mem_side_port::system.l2.cpu_side_port        48768                       # Cumulative packet size per connected requestor and responder (bytes)
system.tol2bus.pkt_size_system.cpu.dcache.mem_side_port::system.l2.cpu_side_port        15296                       # Cumulative packet size per connected requestor and responder (bytes)
system.tol2bus.pkt_size::total                  64064                       # Cumulative packet size per connected requestor and responder (bytes)
system.tol2bus.snoops                               0                       # Total snoops (count)
system.tol2bus.snoopTraffic                         0                       # Total snoop traffic (bytes)
system.tol2bus.snoop_fanout::samples              799                       # Request fanout histogram
system.tol2bus.snoop_fanout::mean            0.038798                       # Request fanout histogram
system.tol2bus.snoop_fanout::stdev           0.193235                       # Request fanout histogram
system.tol2bus.snoop_fanout::underflows             0      0.00%      0.00% # Request fanout histogram
system.tol2bus.snoop_fanout::0                    768     96.12%     96.12% # Request fanout histogram
system.tol2bus.snoop_fanout::1                     31      3.88%    100.00% # Request fanout histogram
system.tol2bus.snoop_fanout::2                      0      0.00%    100.00% # Request fanout histogram
system.tol2bus.snoop_fanout::overflows              0      0.00%    100.00% # Request fanout histogram
system.tol2bus.snoop_fanout::min_value              0                       # Request fanout histogram
system.tol2bus.snoop_fanout::max_value              1                       # Request fanout histogram
system.tol2bus.snoop_fanout::total                799                       # Request fanout histogram
system.tol2bus.power_state.pwrStateResidencyTicks::UNDEFINED     69692829                       # Cumulative time (in ticks) in various power states
system.tol2bus.reqLayer0.occupancy             942471                       # Layer occupancy (ticks)
system.tol2bus.reqLayer0.utilization              1.4                       # Layer utilization (%)
system.tol2bus.respLayer0.occupancy           1127229                       # Layer occupancy (ticks)
system.tol2bus.respLayer0.utilization             1.6                       # Layer utilization (%)
system.tol2bus.respLayer1.occupancy            473568                       # Layer occupancy (ticks)
system.tol2bus.respLayer1.utilization             0.7                       # Layer utilization (%)
system.voltage_domain.voltage                       1                       # Voltage in Volts

---------- End Simulation Statistics   ----------
