
---------- Begin Simulation Statistics ----------
final_tick                                58457987500                       # Number of ticks from beginning of simulation (restored from checkpoints and never reset)
host_inst_rate                                 262965                       # Simulator instruction rate (inst/s)
host_mem_usage                                 680240                       # Number of bytes of host memory used
host_op_rate                                   287745                       # Simulator op (including micro ops) rate (op/s)
host_seconds                                   380.28                       # Real time elapsed on the host
host_tick_rate                              153724070                       # Simulator tick rate (ticks/s)
sim_freq                                 1000000000000                       # Frequency of simulated ticks
sim_insts                                   100000000                       # Number of instructions simulated
sim_ops                                     109423148                       # Number of ops (including micro ops) simulated
sim_seconds                                  0.058458                       # Number of seconds simulated
sim_ticks                                 58457987500                       # Number of ticks simulated
system.cpu.committedInsts                   100000000                       # Number of instructions committed
system.cpu.committedOps                     109423148                       # Number of ops (including micro ops) committed
system.cpu.cpi                               1.169160                       # CPI: cycles per instruction
system.cpu.discardedOps                        460369                       # Number of ops (including micro ops) which were discarded before commit
system.cpu.idleCycles                         5786219                       # Total number of cycles that the object has spent stopped
system.cpu.ipc                               0.855315                       # IPC: instructions per cycle
system.cpu.numCycles                        116915975                       # number of cpu cycles simulated
system.cpu.numFetchSuspends                         0                       # Number of times Execute suspended instruction fetching
system.cpu.numWorkItemsCompleted                    0                       # number of work items this cpu completed
system.cpu.numWorkItemsStarted                      0                       # number of work items this cpu started
system.cpu.op_class_0::No_OpClass                   0      0.00%      0.00% # Class of committed instruction
system.cpu.op_class_0::IntAlu                72978378     66.69%     66.69% # Class of committed instruction
system.cpu.op_class_0::IntMult                 567877      0.52%     67.21% # Class of committed instruction
system.cpu.op_class_0::IntDiv                       0      0.00%     67.21% # Class of committed instruction
system.cpu.op_class_0::FloatAdd                     0      0.00%     67.21% # Class of committed instruction
system.cpu.op_class_0::FloatCmp                     0      0.00%     67.21% # Class of committed instruction
system.cpu.op_class_0::FloatCvt                     0      0.00%     67.21% # Class of committed instruction
system.cpu.op_class_0::FloatMult                    0      0.00%     67.21% # Class of committed instruction
system.cpu.op_class_0::FloatMultAcc                 0      0.00%     67.21% # Class of committed instruction
system.cpu.op_class_0::FloatDiv                     0      0.00%     67.21% # Class of committed instruction
system.cpu.op_class_0::FloatMisc                    0      0.00%     67.21% # Class of committed instruction
system.cpu.op_class_0::FloatSqrt                    0      0.00%     67.21% # Class of committed instruction
system.cpu.op_class_0::SimdAdd                 241132      0.22%     67.43% # Class of committed instruction
system.cpu.op_class_0::SimdAddAcc                   0      0.00%     67.43% # Class of committed instruction
system.cpu.op_class_0::SimdAlu                 154494      0.14%     67.57% # Class of committed instruction
system.cpu.op_class_0::SimdCmp                 120566      0.11%     67.68% # Class of committed instruction
system.cpu.op_class_0::SimdCvt                      0      0.00%     67.68% # Class of committed instruction
system.cpu.op_class_0::SimdMisc                 44506      0.04%     67.73% # Class of committed instruction
system.cpu.op_class_0::SimdMult                     0      0.00%     67.73% # Class of committed instruction
system.cpu.op_class_0::SimdMultAcc                  0      0.00%     67.73% # Class of committed instruction
system.cpu.op_class_0::SimdShift                    0      0.00%     67.73% # Class of committed instruction
system.cpu.op_class_0::SimdShiftAcc                 0      0.00%     67.73% # Class of committed instruction
system.cpu.op_class_0::SimdDiv                      0      0.00%     67.73% # Class of committed instruction
system.cpu.op_class_0::SimdSqrt                     0      0.00%     67.73% # Class of committed instruction
system.cpu.op_class_0::SimdFloatAdd                 0      0.00%     67.73% # Class of committed instruction
system.cpu.op_class_0::SimdFloatAlu                 0      0.00%     67.73% # Class of committed instruction
system.cpu.op_class_0::SimdFloatCmp                 0      0.00%     67.73% # Class of committed instruction
system.cpu.op_class_0::SimdFloatCvt                 0      0.00%     67.73% # Class of committed instruction
system.cpu.op_class_0::SimdFloatDiv                 0      0.00%     67.73% # Class of committed instruction
system.cpu.op_class_0::SimdFloatMisc           166276      0.15%     67.88% # Class of committed instruction
system.cpu.op_class_0::SimdFloatMult                0      0.00%     67.88% # Class of committed instruction
system.cpu.op_class_0::SimdFloatMultAcc             0      0.00%     67.88% # Class of committed instruction
system.cpu.op_class_0::SimdFloatSqrt                0      0.00%     67.88% # Class of committed instruction
system.cpu.op_class_0::SimdReduceAdd                0      0.00%     67.88% # Class of committed instruction
system.cpu.op_class_0::SimdReduceAlu                0      0.00%     67.88% # Class of committed instruction
system.cpu.op_class_0::SimdReduceCmp                0      0.00%     67.88% # Class of committed instruction
system.cpu.op_class_0::SimdFloatReduceAdd            0      0.00%     67.88% # Class of committed instruction
system.cpu.op_class_0::SimdFloatReduceCmp            0      0.00%     67.88% # Class of committed instruction
system.cpu.op_class_0::SimdAes                      0      0.00%     67.88% # Class of committed instruction
system.cpu.op_class_0::SimdAesMix                   0      0.00%     67.88% # Class of committed instruction
system.cpu.op_class_0::SimdSha1Hash                 0      0.00%     67.88% # Class of committed instruction
system.cpu.op_class_0::SimdSha1Hash2                0      0.00%     67.88% # Class of committed instruction
system.cpu.op_class_0::SimdSha256Hash               0      0.00%     67.88% # Class of committed instruction
system.cpu.op_class_0::SimdSha256Hash2              0      0.00%     67.88% # Class of committed instruction
system.cpu.op_class_0::SimdShaSigma2                0      0.00%     67.88% # Class of committed instruction
system.cpu.op_class_0::SimdShaSigma3                0      0.00%     67.88% # Class of committed instruction
system.cpu.op_class_0::SimdPredAlu                  0      0.00%     67.88% # Class of committed instruction
system.cpu.op_class_0::MemRead               20628136     18.85%     86.73% # Class of committed instruction
system.cpu.op_class_0::MemWrite              14521783     13.27%    100.00% # Class of committed instruction
system.cpu.op_class_0::FloatMemRead                 0      0.00%    100.00% # Class of committed instruction
system.cpu.op_class_0::FloatMemWrite                0      0.00%    100.00% # Class of committed instruction
system.cpu.op_class_0::IprAccess                    0      0.00%    100.00% # Class of committed instruction
system.cpu.op_class_0::InstPrefetch                 0      0.00%    100.00% # Class of committed instruction
system.cpu.op_class_0::total                109423148                       # Class of committed instruction
system.cpu.tickCycles                       111129756                       # Number of cycles that the object actually ticked
system.cpu.workload.numSyscalls                    87                       # Number of system calls
system.membus.snoop_filter.hit_multi_requests            0                       # Number of requests hitting in the snoop filter with multiple (>1) holders of the requested data.
system.membus.snoop_filter.hit_multi_snoops            0                       # Number of snoops hitting in the snoop filter with multiple (>1) holders of the requested data.
system.membus.snoop_filter.hit_single_requests         6673                       # Number of requests hitting in the snoop filter with a single holder of the requested data.
system.membus.snoop_filter.hit_single_snoops            0                       # Number of snoops hitting in the snoop filter with a single holder of the requested data.
system.membus.snoop_filter.tot_requests         46507                       # Total number of requests made to the snoop filter.
system.membus.snoop_filter.tot_snoops               0                       # Total number of snoops made to the snoop filter.
system.tol2bus.snoop_filter.hit_multi_requests          332                       # Number of requests hitting in the snoop filter with multiple (>1) holders of the requested data.
system.tol2bus.snoop_filter.hit_multi_snoops            4                       # Number of snoops hitting in the snoop filter with multiple (>1) holders of the requested data.
system.tol2bus.snoop_filter.hit_single_requests       189194                       # Number of requests hitting in the snoop filter with a single holder of the requested data.
system.tol2bus.snoop_filter.hit_single_snoops          395                       # Number of snoops hitting in the snoop filter with a single holder of the requested data.
system.tol2bus.snoop_filter.tot_requests       379793                       # Total number of requests made to the snoop filter.
system.tol2bus.snoop_filter.tot_snoops            399                       # Total number of snoops made to the snoop filter.
system.clk_domain.clock                          1000                       # Clock period in ticks
system.cpu.branchPred.lookups                20399731                       # Number of BP lookups
system.cpu.branchPred.condPredicted          16341019                       # Number of conditional branches predicted
system.cpu.branchPred.condIncorrect             80970                       # Number of conditional branches incorrect
system.cpu.branchPred.BTBLookups              8731974                       # Number of BTB lookups
system.cpu.branchPred.BTBHits                 8730671                       # Number of BTB hits
system.cpu.branchPred.BTBHitPct             99.985078                       # BTB Hit Percentage
system.cpu.branchPred.RASUsed                 1049790                       # Number of times the RAS was used to get a target.
system.cpu.branchPred.RASIncorrect                325                       # Number of incorrect RAS predictions.
system.cpu.branchPred.indirectLookups          433712                       # Number of indirect predictor lookups.
system.cpu.branchPred.indirectHits             299763                       # Number of indirect target hits.
system.cpu.branchPred.indirectMisses           133949                       # Number of indirect misses.
system.cpu.branchPred.indirectMispredicted         1039                       # Number of mispredicted indirect branches.
system.cpu.dcache.demand_hits::.cpu.data     35578811                       # number of demand (read+write) hits
system.cpu.dcache.demand_hits::total         35578811                       # number of demand (read+write) hits
system.cpu.dcache.overall_hits::.cpu.data     35582114                       # number of overall hits
system.cpu.dcache.overall_hits::total        35582114                       # number of overall hits
system.cpu.dcache.demand_misses::.cpu.data        75708                       # number of demand (read+write) misses
system.cpu.dcache.demand_misses::total          75708                       # number of demand (read+write) misses
system.cpu.dcache.overall_misses::.cpu.data        75748                       # number of overall misses
system.cpu.dcache.overall_misses::total         75748                       # number of overall misses
system.cpu.dcache.demand_miss_latency::.cpu.data   4515753000                       # number of demand (read+write) miss cycles
system.cpu.dcache.demand_miss_latency::total   4515753000                       # number of demand (read+write) miss cycles
system.cpu.dcache.overall_miss_latency::.cpu.data   4515753000                       # number of overall miss cycles
system.cpu.dcache.overall_miss_latency::total   4515753000                       # number of overall miss cycles
system.cpu.dcache.demand_accesses::.cpu.data     35654519                       # number of demand (read+write) accesses
system.cpu.dcache.demand_accesses::total     35654519                       # number of demand (read+write) accesses
system.cpu.dcache.overall_accesses::.cpu.data     35657862                       # number of overall (read+write) accesses
system.cpu.dcache.overall_accesses::total     35657862                       # number of overall (read+write) accesses
system.cpu.dcache.demand_miss_rate::.cpu.data     0.002123                       # miss rate for demand accesses
system.cpu.dcache.demand_miss_rate::total     0.002123                       # miss rate for demand accesses
system.cpu.dcache.overall_miss_rate::.cpu.data     0.002124                       # miss rate for overall accesses
system.cpu.dcache.overall_miss_rate::total     0.002124                       # miss rate for overall accesses
system.cpu.dcache.demand_avg_miss_latency::.cpu.data 59646.972579                       # average overall miss latency
system.cpu.dcache.demand_avg_miss_latency::total 59646.972579                       # average overall miss latency
system.cpu.dcache.overall_avg_miss_latency::.cpu.data 59615.474996                       # average overall miss latency
system.cpu.dcache.overall_avg_miss_latency::total 59615.474996                       # average overall miss latency
system.cpu.dcache.blocked_cycles::no_mshrs            0                       # number of cycles access was blocked
system.cpu.dcache.blocked_cycles::no_targets            0                       # number of cycles access was blocked
system.cpu.dcache.blocked::no_mshrs                 0                       # number of cycles access was blocked
system.cpu.dcache.blocked::no_targets               0                       # number of cycles access was blocked
system.cpu.dcache.avg_blocked_cycles::no_mshrs          nan                       # average number of cycles each access was blocked
system.cpu.dcache.avg_blocked_cycles::no_targets          nan                       # average number of cycles each access was blocked
system.cpu.dcache.writebacks::.writebacks        51235                       # number of writebacks
system.cpu.dcache.writebacks::total             51235                       # number of writebacks
system.cpu.dcache.demand_mshr_hits::.cpu.data        19628                       # number of demand (read+write) MSHR hits
system.cpu.dcache.demand_mshr_hits::total        19628                       # number of demand (read+write) MSHR hits
system.cpu.dcache.overall_mshr_hits::.cpu.data        19628                       # number of overall MSHR hits
system.cpu.dcache.overall_mshr_hits::total        19628                       # number of overall MSHR hits
system.cpu.dcache.demand_mshr_misses::.cpu.data        56080                       # number of demand (read+write) MSHR misses
system.cpu.dcache.demand_mshr_misses::total        56080                       # number of demand (read+write) MSHR misses
system.cpu.dcache.overall_mshr_misses::.cpu.data        56116                       # number of overall MSHR misses
system.cpu.dcache.overall_mshr_misses::total        56116                       # number of overall MSHR misses
system.cpu.dcache.demand_mshr_miss_latency::.cpu.data   3351161500                       # number of demand (read+write) MSHR miss cycles
system.cpu.dcache.demand_mshr_miss_latency::total   3351161500                       # number of demand (read+write) MSHR miss cycles
system.cpu.dcache.overall_mshr_miss_latency::.cpu.data   3352395500                       # number of overall MSHR miss cycles
system.cpu.dcache.overall_mshr_miss_latency::total   3352395500                       # number of overall MSHR miss cycles
system.cpu.dcache.demand_mshr_miss_rate::.cpu.data     0.001573                       # mshr miss rate for demand accesses
system.cpu.dcache.demand_mshr_miss_rate::total     0.001573                       # mshr miss rate for demand accesses
system.cpu.dcache.overall_mshr_miss_rate::.cpu.data     0.001574                       # mshr miss rate for overall accesses
system.cpu.dcache.overall_mshr_miss_rate::total     0.001574                       # mshr miss rate for overall accesses
system.cpu.dcache.demand_avg_mshr_miss_latency::.cpu.data 59756.802782                       # average overall mshr miss latency
system.cpu.dcache.demand_avg_mshr_miss_latency::total 59756.802782                       # average overall mshr miss latency
system.cpu.dcache.overall_avg_mshr_miss_latency::.cpu.data 59740.457267                       # average overall mshr miss latency
system.cpu.dcache.overall_avg_mshr_miss_latency::total 59740.457267                       # average overall mshr miss latency
system.cpu.dcache.replacements                  55092                       # number of replacements
system.cpu.dcache.ReadReq_hits::.cpu.data     21392474                       # number of ReadReq hits
system.cpu.dcache.ReadReq_hits::total        21392474                       # number of ReadReq hits
system.cpu.dcache.ReadReq_misses::.cpu.data        20076                       # number of ReadReq misses
system.cpu.dcache.ReadReq_misses::total         20076                       # number of ReadReq misses
system.cpu.dcache.ReadReq_miss_latency::.cpu.data    311677000                       # number of ReadReq miss cycles
system.cpu.dcache.ReadReq_miss_latency::total    311677000                       # number of ReadReq miss cycles
system.cpu.dcache.ReadReq_accesses::.cpu.data     21412550                       # number of ReadReq accesses(hits+misses)
system.cpu.dcache.ReadReq_accesses::total     21412550                       # number of ReadReq accesses(hits+misses)
system.cpu.dcache.ReadReq_miss_rate::.cpu.data     0.000938                       # miss rate for ReadReq accesses
system.cpu.dcache.ReadReq_miss_rate::total     0.000938                       # miss rate for ReadReq accesses
system.cpu.dcache.ReadReq_avg_miss_latency::.cpu.data 15524.855549                       # average ReadReq miss latency
system.cpu.dcache.ReadReq_avg_miss_latency::total 15524.855549                       # average ReadReq miss latency
system.cpu.dcache.ReadReq_mshr_hits::.cpu.data         2960                       # number of ReadReq MSHR hits
system.cpu.dcache.ReadReq_mshr_hits::total         2960                       # number of ReadReq MSHR hits
system.cpu.dcache.ReadReq_mshr_misses::.cpu.data        17116                       # number of ReadReq MSHR misses
system.cpu.dcache.ReadReq_mshr_misses::total        17116                       # number of ReadReq MSHR misses
system.cpu.dcache.ReadReq_mshr_miss_latency::.cpu.data    244824500                       # number of ReadReq MSHR miss cycles
system.cpu.dcache.ReadReq_mshr_miss_latency::total    244824500                       # number of ReadReq MSHR miss cycles
system.cpu.dcache.ReadReq_mshr_miss_rate::.cpu.data     0.000799                       # mshr miss rate for ReadReq accesses
system.cpu.dcache.ReadReq_mshr_miss_rate::total     0.000799                       # mshr miss rate for ReadReq accesses
system.cpu.dcache.ReadReq_avg_mshr_miss_latency::.cpu.data 14303.838514                       # average ReadReq mshr miss latency
system.cpu.dcache.ReadReq_avg_mshr_miss_latency::total 14303.838514                       # average ReadReq mshr miss latency
system.cpu.dcache.WriteReq_hits::.cpu.data     14186337                       # number of WriteReq hits
system.cpu.dcache.WriteReq_hits::total       14186337                       # number of WriteReq hits
system.cpu.dcache.WriteReq_misses::.cpu.data        55632                       # number of WriteReq misses
system.cpu.dcache.WriteReq_misses::total        55632                       # number of WriteReq misses
system.cpu.dcache.WriteReq_miss_latency::.cpu.data   4204076000                       # number of WriteReq miss cycles
system.cpu.dcache.WriteReq_miss_latency::total   4204076000                       # number of WriteReq miss cycles
system.cpu.dcache.WriteReq_accesses::.cpu.data     14241969                       # number of WriteReq accesses(hits+misses)
system.cpu.dcache.WriteReq_accesses::total     14241969                       # number of WriteReq accesses(hits+misses)
system.cpu.dcache.WriteReq_miss_rate::.cpu.data     0.003906                       # miss rate for WriteReq accesses
system.cpu.dcache.WriteReq_miss_rate::total     0.003906                       # miss rate for WriteReq accesses
system.cpu.dcache.WriteReq_avg_miss_latency::.cpu.data 75569.384527                       # average WriteReq miss latency
system.cpu.dcache.WriteReq_avg_miss_latency::total 75569.384527                       # average WriteReq miss latency
system.cpu.dcache.WriteReq_mshr_hits::.cpu.data        16668                       # number of WriteReq MSHR hits
system.cpu.dcache.WriteReq_mshr_hits::total        16668                       # number of WriteReq MSHR hits
system.cpu.dcache.WriteReq_mshr_misses::.cpu.data        38964                       # number of WriteReq MSHR misses
system.cpu.dcache.WriteReq_mshr_misses::total        38964                       # number of WriteReq MSHR misses
system.cpu.dcache.WriteReq_mshr_miss_latency::.cpu.data   3106337000                       # number of WriteReq MSHR miss cycles
system.cpu.dcache.WriteReq_mshr_miss_latency::total   3106337000                       # number of WriteReq MSHR miss cycles
system.cpu.dcache.WriteReq_mshr_miss_rate::.cpu.data     0.002736                       # mshr miss rate for WriteReq accesses
system.cpu.dcache.WriteReq_mshr_miss_rate::total     0.002736                       # mshr miss rate for WriteReq accesses
system.cpu.dcache.WriteReq_avg_mshr_miss_latency::.cpu.data 79723.257366                       # average WriteReq mshr miss latency
system.cpu.dcache.WriteReq_avg_mshr_miss_latency::total 79723.257366                       # average WriteReq mshr miss latency
system.cpu.dcache.SoftPFReq_hits::.cpu.data         3303                       # number of SoftPFReq hits
system.cpu.dcache.SoftPFReq_hits::total          3303                       # number of SoftPFReq hits
system.cpu.dcache.SoftPFReq_misses::.cpu.data           40                       # number of SoftPFReq misses
system.cpu.dcache.SoftPFReq_misses::total           40                       # number of SoftPFReq misses
system.cpu.dcache.SoftPFReq_accesses::.cpu.data         3343                       # number of SoftPFReq accesses(hits+misses)
system.cpu.dcache.SoftPFReq_accesses::total         3343                       # number of SoftPFReq accesses(hits+misses)
system.cpu.dcache.SoftPFReq_miss_rate::.cpu.data     0.011965                       # miss rate for SoftPFReq accesses
system.cpu.dcache.SoftPFReq_miss_rate::total     0.011965                       # miss rate for SoftPFReq accesses
system.cpu.dcache.SoftPFReq_mshr_misses::.cpu.data           36                       # number of SoftPFReq MSHR misses
system.cpu.dcache.SoftPFReq_mshr_misses::total           36                       # number of SoftPFReq MSHR misses
system.cpu.dcache.SoftPFReq_mshr_miss_latency::.cpu.data      1234000                       # number of SoftPFReq MSHR miss cycles
system.cpu.dcache.SoftPFReq_mshr_miss_latency::total      1234000                       # number of SoftPFReq MSHR miss cycles
system.cpu.dcache.SoftPFReq_mshr_miss_rate::.cpu.data     0.010769                       # mshr miss rate for SoftPFReq accesses
system.cpu.dcache.SoftPFReq_mshr_miss_rate::total     0.010769                       # mshr miss rate for SoftPFReq accesses
system.cpu.dcache.SoftPFReq_avg_mshr_miss_latency::.cpu.data 34277.777778                       # average SoftPFReq mshr miss latency
system.cpu.dcache.SoftPFReq_avg_mshr_miss_latency::total 34277.777778                       # average SoftPFReq mshr miss latency
system.cpu.dcache.LoadLockedReq_hits::.cpu.data        89006                       # number of LoadLockedReq hits
system.cpu.dcache.LoadLockedReq_hits::total        89006                       # number of LoadLockedReq hits
system.cpu.dcache.LoadLockedReq_accesses::.cpu.data        89006                       # number of LoadLockedReq accesses(hits+misses)
system.cpu.dcache.LoadLockedReq_accesses::total        89006                       # number of LoadLockedReq accesses(hits+misses)
system.cpu.dcache.StoreCondReq_hits::.cpu.data        89006                       # number of StoreCondReq hits
system.cpu.dcache.StoreCondReq_hits::total        89006                       # number of StoreCondReq hits
system.cpu.dcache.StoreCondReq_accesses::.cpu.data        89006                       # number of StoreCondReq accesses(hits+misses)
system.cpu.dcache.StoreCondReq_accesses::total        89006                       # number of StoreCondReq accesses(hits+misses)
system.cpu.dcache.power_state.pwrStateResidencyTicks::UNDEFINED  58457987500                       # Cumulative time (in ticks) in various power states
system.cpu.dcache.tags.tagsinuse          1020.433096                       # Cycle average of tags in use
system.cpu.dcache.tags.total_refs            35816242                       # Total number of references to valid blocks.
system.cpu.dcache.tags.sampled_refs             56116                       # Sample count of references to valid blocks.
system.cpu.dcache.tags.avg_refs            638.253653                       # Average number of references to valid blocks.
system.cpu.dcache.tags.warmup_cycle            176500                       # Cycle when the warmup percentage was hit.
system.cpu.dcache.tags.occ_blocks::.cpu.data  1020.433096                       # Average occupied blocks per requestor
system.cpu.dcache.tags.occ_percent::.cpu.data     0.996517                       # Average percentage of cache occupancy
system.cpu.dcache.tags.occ_percent::total     0.996517                       # Average percentage of cache occupancy
system.cpu.dcache.tags.occ_task_id_blocks::1024         1024                       # Occupied blocks per task id
system.cpu.dcache.tags.age_task_id_blocks_1024::0            6                       # Occupied blocks per task id
system.cpu.dcache.tags.age_task_id_blocks_1024::1           45                       # Occupied blocks per task id
system.cpu.dcache.tags.age_task_id_blocks_1024::2          571                       # Occupied blocks per task id
system.cpu.dcache.tags.age_task_id_blocks_1024::3          363                       # Occupied blocks per task id
system.cpu.dcache.tags.age_task_id_blocks_1024::4           39                       # Occupied blocks per task id
system.cpu.dcache.tags.occ_task_id_percent::1024            1                       # Percentage of cache occupancy per task id
system.cpu.dcache.tags.tag_accesses          71727864                       # Number of tag accesses
system.cpu.dcache.tags.data_accesses         71727864                       # Number of data accesses
system.cpu.dcache.tags.power_state.pwrStateResidencyTicks::UNDEFINED  58457987500                       # Cumulative time (in ticks) in various power states
system.cpu.dtb.instHits                             0                       # ITB inst hits
system.cpu.dtb.instMisses                           0                       # ITB inst misses
system.cpu.dtb.readHits                             0                       # DTB read hits
system.cpu.dtb.readMisses                           0                       # DTB read misses
system.cpu.dtb.writeHits                            0                       # DTB write hits
system.cpu.dtb.writeMisses                          0                       # DTB write misses
system.cpu.dtb.inserts                              0                       # Number of times an entry is inserted into the TLB
system.cpu.dtb.flushTlb                             0                       # Number of times complete TLB was flushed
system.cpu.dtb.flushTlbMva                          0                       # Number of times TLB was flushed by MVA
system.cpu.dtb.flushTlbMvaAsid                      0                       # Number of times TLB was flushed by MVA & ASID
system.cpu.dtb.flushTlbAsid                         0                       # Number of times TLB was flushed by ASID
system.cpu.dtb.flushedEntries                       0                       # Number of entries that have been flushed from TLB
system.cpu.dtb.alignFaults                          0                       # Number of TLB faults due to alignment restrictions
system.cpu.dtb.prefetchFaults                       0                       # Number of TLB faults due to prefetch
system.cpu.dtb.domainFaults                         0                       # Number of TLB faults due to domain restrictions
system.cpu.dtb.permsFaults                          0                       # Number of TLB faults due to permissions restrictions
system.cpu.dtb.readAccesses                         0                       # DTB read accesses
system.cpu.dtb.writeAccesses                        0                       # DTB write accesses
system.cpu.dtb.instAccesses                         0                       # ITB inst accesses
system.cpu.dtb.hits                                 0                       # Total TLB (inst and data) hits
system.cpu.dtb.misses                               0                       # Total TLB (inst and data) misses
system.cpu.dtb.accesses                             0                       # Total TLB (inst and data) accesses
system.cpu.dtb.stage2_mmu.stage2_tlb.instHits            0                       # ITB inst hits
system.cpu.dtb.stage2_mmu.stage2_tlb.instMisses            0                       # ITB inst misses
system.cpu.dtb.stage2_mmu.stage2_tlb.readHits            0                       # DTB read hits
system.cpu.dtb.stage2_mmu.stage2_tlb.readMisses            0                       # DTB read misses
system.cpu.dtb.stage2_mmu.stage2_tlb.writeHits            0                       # DTB write hits
system.cpu.dtb.stage2_mmu.stage2_tlb.writeMisses            0                       # DTB write misses
system.cpu.dtb.stage2_mmu.stage2_tlb.inserts            0                       # Number of times an entry is inserted into the TLB
system.cpu.dtb.stage2_mmu.stage2_tlb.flushTlb            0                       # Number of times complete TLB was flushed
system.cpu.dtb.stage2_mmu.stage2_tlb.flushTlbMva            0                       # Number of times TLB was flushed by MVA
system.cpu.dtb.stage2_mmu.stage2_tlb.flushTlbMvaAsid            0                       # Number of times TLB was flushed by MVA & ASID
system.cpu.dtb.stage2_mmu.stage2_tlb.flushTlbAsid            0                       # Number of times TLB was flushed by ASID
system.cpu.dtb.stage2_mmu.stage2_tlb.flushedEntries            0                       # Number of entries that have been flushed from TLB
system.cpu.dtb.stage2_mmu.stage2_tlb.alignFaults            0                       # Number of TLB faults due to alignment restrictions
system.cpu.dtb.stage2_mmu.stage2_tlb.prefetchFaults            0                       # Number of TLB faults due to prefetch
system.cpu.dtb.stage2_mmu.stage2_tlb.domainFaults            0                       # Number of TLB faults due to domain restrictions
system.cpu.dtb.stage2_mmu.stage2_tlb.permsFaults            0                       # Number of TLB faults due to permissions restrictions
system.cpu.dtb.stage2_mmu.stage2_tlb.readAccesses            0                       # DTB read accesses
system.cpu.dtb.stage2_mmu.stage2_tlb.writeAccesses            0                       # DTB write accesses
system.cpu.dtb.stage2_mmu.stage2_tlb.instAccesses            0                       # ITB inst accesses
system.cpu.dtb.stage2_mmu.stage2_tlb.hits            0                       # Total TLB (inst and data) hits
system.cpu.dtb.stage2_mmu.stage2_tlb.misses            0                       # Total TLB (inst and data) misses
system.cpu.dtb.stage2_mmu.stage2_tlb.accesses            0                       # Total TLB (inst and data) accesses
system.cpu.dtb.stage2_mmu.stage2_tlb.walker.walks            0                       # Table walker walks requested
system.cpu.dtb.stage2_mmu.stage2_tlb.walker.requestOrigin_Requested::Data            0                       # Table walker requests started/completed, data/inst
system.cpu.dtb.stage2_mmu.stage2_tlb.walker.requestOrigin_Requested::Inst            0                       # Table walker requests started/completed, data/inst
system.cpu.dtb.stage2_mmu.stage2_tlb.walker.requestOrigin_Requested::total            0                       # Table walker requests started/completed, data/inst
system.cpu.dtb.stage2_mmu.stage2_tlb.walker.requestOrigin_Completed::Data            0                       # Table walker requests started/completed, data/inst
system.cpu.dtb.stage2_mmu.stage2_tlb.walker.requestOrigin_Completed::Inst            0                       # Table walker requests started/completed, data/inst
system.cpu.dtb.stage2_mmu.stage2_tlb.walker.requestOrigin_Completed::total            0                       # Table walker requests started/completed, data/inst
system.cpu.dtb.stage2_mmu.stage2_tlb.walker.requestOrigin::total            0                       # Table walker requests started/completed, data/inst
system.cpu.dtb.stage2_mmu.stage2_tlb.walker.power_state.pwrStateResidencyTicks::UNDEFINED  58457987500                       # Cumulative time (in ticks) in various power states
system.cpu.dtb.walker.walks                         0                       # Table walker walks requested
system.cpu.dtb.walker.requestOrigin_Requested::Data            0                       # Table walker requests started/completed, data/inst
system.cpu.dtb.walker.requestOrigin_Requested::Inst            0                       # Table walker requests started/completed, data/inst
system.cpu.dtb.walker.requestOrigin_Requested::total            0                       # Table walker requests started/completed, data/inst
system.cpu.dtb.walker.requestOrigin_Completed::Data            0                       # Table walker requests started/completed, data/inst
system.cpu.dtb.walker.requestOrigin_Completed::Inst            0                       # Table walker requests started/completed, data/inst
system.cpu.dtb.walker.requestOrigin_Completed::total            0                       # Table walker requests started/completed, data/inst
system.cpu.dtb.walker.requestOrigin::total            0                       # Table walker requests started/completed, data/inst
system.cpu.dtb.walker.power_state.pwrStateResidencyTicks::UNDEFINED  58457987500                       # Cumulative time (in ticks) in various power states
system.cpu.fetch2.intInstructions            49406217                       # Number of integer instructions successfully decoded
system.cpu.fetch2.fpInstructions                    0                       # Number of floating point instructions successfully decoded
system.cpu.fetch2.vecInstructions                   0                       # Number of SIMD instructions successfully decoded
system.cpu.fetch2.loadInstructions           17098710                       # Number of memory load instructions successfully decoded
system.cpu.fetch2.storeInstructions           9762417                       # Number of memory store instructions successfully decoded
system.cpu.fetch2.amoInstructions                   0                       # Number of memory atomic instructions successfully decoded
system.cpu.icache.demand_hits::.cpu.inst     27627932                       # number of demand (read+write) hits
system.cpu.icache.demand_hits::total         27627932                       # number of demand (read+write) hits
system.cpu.icache.overall_hits::.cpu.inst     27627932                       # number of overall hits
system.cpu.icache.overall_hits::total        27627932                       # number of overall hits
system.cpu.icache.demand_misses::.cpu.inst       134488                       # number of demand (read+write) misses
system.cpu.icache.demand_misses::total         134488                       # number of demand (read+write) misses
system.cpu.icache.overall_misses::.cpu.inst       134488                       # number of overall misses
system.cpu.icache.overall_misses::total        134488                       # number of overall misses
system.cpu.icache.demand_miss_latency::.cpu.inst   1782236500                       # number of demand (read+write) miss cycles
system.cpu.icache.demand_miss_latency::total   1782236500                       # number of demand (read+write) miss cycles
system.cpu.icache.overall_miss_latency::.cpu.inst   1782236500                       # number of overall miss cycles
system.cpu.icache.overall_miss_latency::total   1782236500                       # number of overall miss cycles
system.cpu.icache.demand_accesses::.cpu.inst     27762420                       # number of demand (read+write) accesses
system.cpu.icache.demand_accesses::total     27762420                       # number of demand (read+write) accesses
system.cpu.icache.overall_accesses::.cpu.inst     27762420                       # number of overall (read+write) accesses
system.cpu.icache.overall_accesses::total     27762420                       # number of overall (read+write) accesses
system.cpu.icache.demand_miss_rate::.cpu.inst     0.004844                       # miss rate for demand accesses
system.cpu.icache.demand_miss_rate::total     0.004844                       # miss rate for demand accesses
system.cpu.icache.overall_miss_rate::.cpu.inst     0.004844                       # miss rate for overall accesses
system.cpu.icache.overall_miss_rate::total     0.004844                       # miss rate for overall accesses
system.cpu.icache.demand_avg_miss_latency::.cpu.inst 13252.011332                       # average overall miss latency
system.cpu.icache.demand_avg_miss_latency::total 13252.011332                       # average overall miss latency
system.cpu.icache.overall_avg_miss_latency::.cpu.inst 13252.011332                       # average overall miss latency
system.cpu.icache.overall_avg_miss_latency::total 13252.011332                       # average overall miss latency
system.cpu.icache.blocked_cycles::no_mshrs            0                       # number of cycles access was blocked
system.cpu.icache.blocked_cycles::no_targets            0                       # number of cycles access was blocked
system.cpu.icache.blocked::no_mshrs                 0                       # number of cycles access was blocked
system.cpu.icache.blocked::no_targets               0                       # number of cycles access was blocked
system.cpu.icache.avg_blocked_cycles::no_mshrs          nan                       # average number of cycles each access was blocked
system.cpu.icache.avg_blocked_cycles::no_targets          nan                       # average number of cycles each access was blocked
system.cpu.icache.writebacks::.writebacks       134097                       # number of writebacks
system.cpu.icache.writebacks::total            134097                       # number of writebacks
system.cpu.icache.demand_mshr_misses::.cpu.inst       134488                       # number of demand (read+write) MSHR misses
system.cpu.icache.demand_mshr_misses::total       134488                       # number of demand (read+write) MSHR misses
system.cpu.icache.overall_mshr_misses::.cpu.inst       134488                       # number of overall MSHR misses
system.cpu.icache.overall_mshr_misses::total       134488                       # number of overall MSHR misses
system.cpu.icache.demand_mshr_miss_latency::.cpu.inst   1647748500                       # number of demand (read+write) MSHR miss cycles
system.cpu.icache.demand_mshr_miss_latency::total   1647748500                       # number of demand (read+write) MSHR miss cycles
system.cpu.icache.overall_mshr_miss_latency::.cpu.inst   1647748500                       # number of overall MSHR miss cycles
system.cpu.icache.overall_mshr_miss_latency::total   1647748500                       # number of overall MSHR miss cycles
system.cpu.icache.demand_mshr_miss_rate::.cpu.inst     0.004844                       # mshr miss rate for demand accesses
system.cpu.icache.demand_mshr_miss_rate::total     0.004844                       # mshr miss rate for demand accesses
system.cpu.icache.overall_mshr_miss_rate::.cpu.inst     0.004844                       # mshr miss rate for overall accesses
system.cpu.icache.overall_mshr_miss_rate::total     0.004844                       # mshr miss rate for overall accesses
system.cpu.icache.demand_avg_mshr_miss_latency::.cpu.inst 12252.011332                       # average overall mshr miss latency
system.cpu.icache.demand_avg_mshr_miss_latency::total 12252.011332                       # average overall mshr miss latency
system.cpu.icache.overall_avg_mshr_miss_latency::.cpu.inst 12252.011332                       # average overall mshr miss latency
system.cpu.icache.overall_avg_mshr_miss_latency::total 12252.011332                       # average overall mshr miss latency
system.cpu.icache.replacements                 134097                       # number of replacements
system.cpu.icache.ReadReq_hits::.cpu.inst     27627932                       # number of ReadReq hits
system.cpu.icache.ReadReq_hits::total        27627932                       # number of ReadReq hits
system.cpu.icache.ReadReq_misses::.cpu.inst       134488                       # number of ReadReq misses
system.cpu.icache.ReadReq_misses::total        134488                       # number of ReadReq misses
system.cpu.icache.ReadReq_miss_latency::.cpu.inst   1782236500                       # number of ReadReq miss cycles
system.cpu.icache.ReadReq_miss_latency::total   1782236500                       # number of ReadReq miss cycles
system.cpu.icache.ReadReq_accesses::.cpu.inst     27762420                       # number of ReadReq accesses(hits+misses)
system.cpu.icache.ReadReq_accesses::total     27762420                       # number of ReadReq accesses(hits+misses)
system.cpu.icache.ReadReq_miss_rate::.cpu.inst     0.004844                       # miss rate for ReadReq accesses
system.cpu.icache.ReadReq_miss_rate::total     0.004844                       # miss rate for ReadReq accesses
system.cpu.icache.ReadReq_avg_miss_latency::.cpu.inst 13252.011332                       # average ReadReq miss latency
system.cpu.icache.ReadReq_avg_miss_latency::total 13252.011332                       # average ReadReq miss latency
system.cpu.icache.ReadReq_mshr_misses::.cpu.inst       134488                       # number of ReadReq MSHR misses
system.cpu.icache.ReadReq_mshr_misses::total       134488                       # number of ReadReq MSHR misses
system.cpu.icache.ReadReq_mshr_miss_latency::.cpu.inst   1647748500                       # number of ReadReq MSHR miss cycles
system.cpu.icache.ReadReq_mshr_miss_latency::total   1647748500                       # number of ReadReq MSHR miss cycles
system.cpu.icache.ReadReq_mshr_miss_rate::.cpu.inst     0.004844                       # mshr miss rate for ReadReq accesses
system.cpu.icache.ReadReq_mshr_miss_rate::total     0.004844                       # mshr miss rate for ReadReq accesses
system.cpu.icache.ReadReq_avg_mshr_miss_latency::.cpu.inst 12252.011332                       # average ReadReq mshr miss latency
system.cpu.icache.ReadReq_avg_mshr_miss_latency::total 12252.011332                       # average ReadReq mshr miss latency
system.cpu.icache.power_state.pwrStateResidencyTicks::UNDEFINED  58457987500                       # Cumulative time (in ticks) in various power states
system.cpu.icache.tags.tagsinuse           390.488171                       # Cycle average of tags in use
system.cpu.icache.tags.total_refs            27762420                       # Total number of references to valid blocks.
system.cpu.icache.tags.sampled_refs            134488                       # Sample count of references to valid blocks.
system.cpu.icache.tags.avg_refs            206.430462                       # Average number of references to valid blocks.
system.cpu.icache.tags.warmup_cycle             87500                       # Cycle when the warmup percentage was hit.
system.cpu.icache.tags.occ_blocks::.cpu.inst   390.488171                       # Average occupied blocks per requestor
system.cpu.icache.tags.occ_percent::.cpu.inst     0.762672                       # Average percentage of cache occupancy
system.cpu.icache.tags.occ_percent::total     0.762672                       # Average percentage of cache occupancy
system.cpu.icache.tags.occ_task_id_blocks::1024          391                       # Occupied blocks per task id
system.cpu.icache.tags.age_task_id_blocks_1024::0            2                       # Occupied blocks per task id
system.cpu.icache.tags.age_task_id_blocks_1024::2            4                       # Occupied blocks per task id
system.cpu.icache.tags.age_task_id_blocks_1024::4          385                       # Occupied blocks per task id
system.cpu.icache.tags.occ_task_id_percent::1024     0.763672                       # Percentage of cache occupancy per task id
system.cpu.icache.tags.tag_accesses          55659328                       # Number of tag accesses
system.cpu.icache.tags.data_accesses         55659328                       # Number of data accesses
system.cpu.icache.tags.power_state.pwrStateResidencyTicks::UNDEFINED  58457987500                       # Cumulative time (in ticks) in various power states
system.cpu.itb.instHits                             0                       # ITB inst hits
system.cpu.itb.instMisses                           0                       # ITB inst misses
system.cpu.itb.readHits                             0                       # DTB read hits
system.cpu.itb.readMisses                           0                       # DTB read misses
system.cpu.itb.writeHits                            0                       # DTB write hits
system.cpu.itb.writeMisses                          0                       # DTB write misses
system.cpu.itb.inserts                              0                       # Number of times an entry is inserted into the TLB
system.cpu.itb.flushTlb                             0                       # Number of times complete TLB was flushed
system.cpu.itb.flushTlbMva                          0                       # Number of times TLB was flushed by MVA
system.cpu.itb.flushTlbMvaAsid                      0                       # Number of times TLB was flushed by MVA & ASID
system.cpu.itb.flushTlbAsid                         0                       # Number of times TLB was flushed by ASID
system.cpu.itb.flushedEntries                       0                       # Number of entries that have been flushed from TLB
system.cpu.itb.alignFaults                          0                       # Number of TLB faults due to alignment restrictions
system.cpu.itb.prefetchFaults                       0                       # Number of TLB faults due to prefetch
system.cpu.itb.domainFaults                         0                       # Number of TLB faults due to domain restrictions
system.cpu.itb.permsFaults                          0                       # Number of TLB faults due to permissions restrictions
system.cpu.itb.readAccesses                         0                       # DTB read accesses
system.cpu.itb.writeAccesses                        0                       # DTB write accesses
system.cpu.itb.instAccesses                         0                       # ITB inst accesses
system.cpu.itb.hits                                 0                       # Total TLB (inst and data) hits
system.cpu.itb.misses                               0                       # Total TLB (inst and data) misses
system.cpu.itb.accesses                             0                       # Total TLB (inst and data) accesses
system.cpu.itb.stage2_mmu.stage2_tlb.instHits            0                       # ITB inst hits
system.cpu.itb.stage2_mmu.stage2_tlb.instMisses            0                       # ITB inst misses
system.cpu.itb.stage2_mmu.stage2_tlb.readHits            0                       # DTB read hits
system.cpu.itb.stage2_mmu.stage2_tlb.readMisses            0                       # DTB read misses
system.cpu.itb.stage2_mmu.stage2_tlb.writeHits            0                       # DTB write hits
system.cpu.itb.stage2_mmu.stage2_tlb.writeMisses            0                       # DTB write misses
system.cpu.itb.stage2_mmu.stage2_tlb.inserts            0                       # Number of times an entry is inserted into the TLB
system.cpu.itb.stage2_mmu.stage2_tlb.flushTlb            0                       # Number of times complete TLB was flushed
system.cpu.itb.stage2_mmu.stage2_tlb.flushTlbMva            0                       # Number of times TLB was flushed by MVA
system.cpu.itb.stage2_mmu.stage2_tlb.flushTlbMvaAsid            0                       # Number of times TLB was flushed by MVA & ASID
system.cpu.itb.stage2_mmu.stage2_tlb.flushTlbAsid            0                       # Number of times TLB was flushed by ASID
system.cpu.itb.stage2_mmu.stage2_tlb.flushedEntries            0                       # Number of entries that have been flushed from TLB
system.cpu.itb.stage2_mmu.stage2_tlb.alignFaults            0                       # Number of TLB faults due to alignment restrictions
system.cpu.itb.stage2_mmu.stage2_tlb.prefetchFaults            0                       # Number of TLB faults due to prefetch
system.cpu.itb.stage2_mmu.stage2_tlb.domainFaults            0                       # Number of TLB faults due to domain restrictions
system.cpu.itb.stage2_mmu.stage2_tlb.permsFaults            0                       # Number of TLB faults due to permissions restrictions
system.cpu.itb.stage2_mmu.stage2_tlb.readAccesses            0                       # DTB read accesses
system.cpu.itb.stage2_mmu.stage2_tlb.writeAccesses            0                       # DTB write accesses
system.cpu.itb.stage2_mmu.stage2_tlb.instAccesses            0                       # ITB inst accesses
system.cpu.itb.stage2_mmu.stage2_tlb.hits            0                       # Total TLB (inst and data) hits
system.cpu.itb.stage2_mmu.stage2_tlb.misses            0                       # Total TLB (inst and data) misses
system.cpu.itb.stage2_mmu.stage2_tlb.accesses            0                       # Total TLB (inst and data) accesses
system.cpu.itb.stage2_mmu.stage2_tlb.walker.walks            0                       # Table walker walks requested
system.cpu.itb.stage2_mmu.stage2_tlb.walker.requestOrigin_Requested::Data            0                       # Table walker requests started/completed, data/inst
system.cpu.itb.stage2_mmu.stage2_tlb.walker.requestOrigin_Requested::Inst            0                       # Table walker requests started/completed, data/inst
system.cpu.itb.stage2_mmu.stage2_tlb.walker.requestOrigin_Requested::total            0                       # Table walker requests started/completed, data/inst
system.cpu.itb.stage2_mmu.stage2_tlb.walker.requestOrigin_Completed::Data            0                       # Table walker requests started/completed, data/inst
system.cpu.itb.stage2_mmu.stage2_tlb.walker.requestOrigin_Completed::Inst            0                       # Table walker requests started/completed, data/inst
system.cpu.itb.stage2_mmu.stage2_tlb.walker.requestOrigin_Completed::total            0                       # Table walker requests started/completed, data/inst
system.cpu.itb.stage2_mmu.stage2_tlb.walker.requestOrigin::total            0                       # Table walker requests started/completed, data/inst
system.cpu.itb.stage2_mmu.stage2_tlb.walker.power_state.pwrStateResidencyTicks::UNDEFINED  58457987500                       # Cumulative time (in ticks) in various power states
system.cpu.itb.walker.walks                         0                       # Table walker walks requested
system.cpu.itb.walker.requestOrigin_Requested::Data            0                       # Table walker requests started/completed, data/inst
system.cpu.itb.walker.requestOrigin_Requested::Inst            0                       # Table walker requests started/completed, data/inst
system.cpu.itb.walker.requestOrigin_Requested::total            0                       # Table walker requests started/completed, data/inst
system.cpu.itb.walker.requestOrigin_Completed::Data            0                       # Table walker requests started/completed, data/inst
system.cpu.itb.walker.requestOrigin_Completed::Inst            0                       # Table walker requests started/completed, data/inst
system.cpu.itb.walker.requestOrigin_Completed::total            0                       # Table walker requests started/completed, data/inst
system.cpu.itb.walker.requestOrigin::total            0                       # Table walker requests started/completed, data/inst
system.cpu.itb.walker.power_state.pwrStateResidencyTicks::UNDEFINED  58457987500                       # Cumulative time (in ticks) in various power states
system.cpu.power_state.pwrStateResidencyTicks::ON  58457987500                       # Cumulative time (in ticks) in various power states
system.cpu.thread_0.numInsts                100000000                       # Number of Instructions committed
system.cpu.thread_0.numOps                  109423148                       # Number of Ops committed
system.cpu.thread_0.numMemRefs                      0                       # Number of Memory References
system.cpu_clk_domain.clock                       500                       # Clock period in ticks
system.cpu_voltage_domain.voltage                   1                       # Voltage in Volts
system.l2.demand_hits::.cpu.inst               133973                       # number of demand (read+write) hits
system.l2.demand_hits::.cpu.data                16792                       # number of demand (read+write) hits
system.l2.demand_hits::total                   150765                       # number of demand (read+write) hits
system.l2.overall_hits::.cpu.inst              133973                       # number of overall hits
system.l2.overall_hits::.cpu.data               16792                       # number of overall hits
system.l2.overall_hits::total                  150765                       # number of overall hits
system.l2.demand_misses::.cpu.inst                515                       # number of demand (read+write) misses
system.l2.demand_misses::.cpu.data              39324                       # number of demand (read+write) misses
system.l2.demand_misses::total                  39839                       # number of demand (read+write) misses
system.l2.overall_misses::.cpu.inst               515                       # number of overall misses
system.l2.overall_misses::.cpu.data             39324                       # number of overall misses
system.l2.overall_misses::total                 39839                       # number of overall misses
system.l2.demand_miss_latency::.cpu.inst     39286000                       # number of demand (read+write) miss cycles
system.l2.demand_miss_latency::.cpu.data   3091577000                       # number of demand (read+write) miss cycles
system.l2.demand_miss_latency::total       3130863000                       # number of demand (read+write) miss cycles
system.l2.overall_miss_latency::.cpu.inst     39286000                       # number of overall miss cycles
system.l2.overall_miss_latency::.cpu.data   3091577000                       # number of overall miss cycles
system.l2.overall_miss_latency::total      3130863000                       # number of overall miss cycles
system.l2.demand_accesses::.cpu.inst           134488                       # number of demand (read+write) accesses
system.l2.demand_accesses::.cpu.data            56116                       # number of demand (read+write) accesses
system.l2.demand_accesses::total               190604                       # number of demand (read+write) accesses
system.l2.overall_accesses::.cpu.inst          134488                       # number of overall (read+write) accesses
system.l2.overall_accesses::.cpu.data           56116                       # number of overall (read+write) accesses
system.l2.overall_accesses::total              190604                       # number of overall (read+write) accesses
system.l2.demand_miss_rate::.cpu.inst        0.003829                       # miss rate for demand accesses
system.l2.demand_miss_rate::.cpu.data        0.700763                       # miss rate for demand accesses
system.l2.demand_miss_rate::total            0.209015                       # miss rate for demand accesses
system.l2.overall_miss_rate::.cpu.inst       0.003829                       # miss rate for overall accesses
system.l2.overall_miss_rate::.cpu.data       0.700763                       # miss rate for overall accesses
system.l2.overall_miss_rate::total           0.209015                       # miss rate for overall accesses
system.l2.demand_avg_miss_latency::.cpu.inst 76283.495146                       # average overall miss latency
system.l2.demand_avg_miss_latency::.cpu.data 78618.070390                       # average overall miss latency
system.l2.demand_avg_miss_latency::total 78587.891262                       # average overall miss latency
system.l2.overall_avg_miss_latency::.cpu.inst 76283.495146                       # average overall miss latency
system.l2.overall_avg_miss_latency::.cpu.data 78618.070390                       # average overall miss latency
system.l2.overall_avg_miss_latency::total 78587.891262                       # average overall miss latency
system.l2.blocked_cycles::no_mshrs                  0                       # number of cycles access was blocked
system.l2.blocked_cycles::no_targets                0                       # number of cycles access was blocked
system.l2.blocked::no_mshrs                         0                       # number of cycles access was blocked
system.l2.blocked::no_targets                       0                       # number of cycles access was blocked
system.l2.avg_blocked_cycles::no_mshrs            nan                       # average number of cycles each access was blocked
system.l2.avg_blocked_cycles::no_targets          nan                       # average number of cycles each access was blocked
system.l2.writebacks::.writebacks                6489                       # number of writebacks
system.l2.writebacks::total                      6489                       # number of writebacks
system.l2.demand_mshr_hits::.cpu.data               4                       # number of demand (read+write) MSHR hits
system.l2.demand_mshr_hits::total                   4                       # number of demand (read+write) MSHR hits
system.l2.overall_mshr_hits::.cpu.data              4                       # number of overall MSHR hits
system.l2.overall_mshr_hits::total                  4                       # number of overall MSHR hits
system.l2.demand_mshr_misses::.cpu.inst           515                       # number of demand (read+write) MSHR misses
system.l2.demand_mshr_misses::.cpu.data         39320                       # number of demand (read+write) MSHR misses
system.l2.demand_mshr_misses::total             39835                       # number of demand (read+write) MSHR misses
system.l2.overall_mshr_misses::.cpu.inst          515                       # number of overall MSHR misses
system.l2.overall_mshr_misses::.cpu.data        39320                       # number of overall MSHR misses
system.l2.overall_mshr_misses::total            39835                       # number of overall MSHR misses
system.l2.demand_mshr_miss_latency::.cpu.inst     34136000                       # number of demand (read+write) MSHR miss cycles
system.l2.demand_mshr_miss_latency::.cpu.data   2698117000                       # number of demand (read+write) MSHR miss cycles
system.l2.demand_mshr_miss_latency::total   2732253000                       # number of demand (read+write) MSHR miss cycles
system.l2.overall_mshr_miss_latency::.cpu.inst     34136000                       # number of overall MSHR miss cycles
system.l2.overall_mshr_miss_latency::.cpu.data   2698117000                       # number of overall MSHR miss cycles
system.l2.overall_mshr_miss_latency::total   2732253000                       # number of overall MSHR miss cycles
system.l2.demand_mshr_miss_rate::.cpu.inst     0.003829                       # mshr miss rate for demand accesses
system.l2.demand_mshr_miss_rate::.cpu.data     0.700691                       # mshr miss rate for demand accesses
system.l2.demand_mshr_miss_rate::total       0.208994                       # mshr miss rate for demand accesses
system.l2.overall_mshr_miss_rate::.cpu.inst     0.003829                       # mshr miss rate for overall accesses
system.l2.overall_mshr_miss_rate::.cpu.data     0.700691                       # mshr miss rate for overall accesses
system.l2.overall_mshr_miss_rate::total      0.208994                       # mshr miss rate for overall accesses
system.l2.demand_avg_mshr_miss_latency::.cpu.inst 66283.495146                       # average overall mshr miss latency
system.l2.demand_avg_mshr_miss_latency::.cpu.data 68619.455748                       # average overall mshr miss latency
system.l2.demand_avg_mshr_miss_latency::total 68589.255680                       # average overall mshr miss latency
system.l2.overall_avg_mshr_miss_latency::.cpu.inst 66283.495146                       # average overall mshr miss latency
system.l2.overall_avg_mshr_miss_latency::.cpu.data 68619.455748                       # average overall mshr miss latency
system.l2.overall_avg_mshr_miss_latency::total 68589.255680                       # average overall mshr miss latency
system.l2.replacements                           7070                       # number of replacements
system.l2.WritebackDirty_hits::.writebacks        51235                       # number of WritebackDirty hits
system.l2.WritebackDirty_hits::total            51235                       # number of WritebackDirty hits
system.l2.WritebackDirty_accesses::.writebacks        51235                       # number of WritebackDirty accesses(hits+misses)
system.l2.WritebackDirty_accesses::total        51235                       # number of WritebackDirty accesses(hits+misses)
system.l2.WritebackClean_hits::.writebacks       134086                       # number of WritebackClean hits
system.l2.WritebackClean_hits::total           134086                       # number of WritebackClean hits
system.l2.WritebackClean_accesses::.writebacks       134086                       # number of WritebackClean accesses(hits+misses)
system.l2.WritebackClean_accesses::total       134086                       # number of WritebackClean accesses(hits+misses)
system.l2.CleanEvict_mshr_misses::.writebacks            1                       # number of CleanEvict MSHR misses
system.l2.CleanEvict_mshr_misses::total             1                       # number of CleanEvict MSHR misses
system.l2.CleanEvict_mshr_miss_rate::.writebacks          inf                       # mshr miss rate for CleanEvict accesses
system.l2.CleanEvict_mshr_miss_rate::total          inf                       # mshr miss rate for CleanEvict accesses
system.l2.ReadExReq_hits::.cpu.data               172                       # number of ReadExReq hits
system.l2.ReadExReq_hits::total                   172                       # number of ReadExReq hits
system.l2.ReadExReq_misses::.cpu.data           38792                       # number of ReadExReq misses
system.l2.ReadExReq_misses::total               38792                       # number of ReadExReq misses
system.l2.ReadExReq_miss_latency::.cpu.data   3046081500                       # number of ReadExReq miss cycles
system.l2.ReadExReq_miss_latency::total    3046081500                       # number of ReadExReq miss cycles
system.l2.ReadExReq_accesses::.cpu.data         38964                       # number of ReadExReq accesses(hits+misses)
system.l2.ReadExReq_accesses::total             38964                       # number of ReadExReq accesses(hits+misses)
system.l2.ReadExReq_miss_rate::.cpu.data     0.995586                       # miss rate for ReadExReq accesses
system.l2.ReadExReq_miss_rate::total         0.995586                       # miss rate for ReadExReq accesses
system.l2.ReadExReq_avg_miss_latency::.cpu.data 78523.445556                       # average ReadExReq miss latency
system.l2.ReadExReq_avg_miss_latency::total 78523.445556                       # average ReadExReq miss latency
system.l2.ReadExReq_mshr_misses::.cpu.data        38792                       # number of ReadExReq MSHR misses
system.l2.ReadExReq_mshr_misses::total          38792                       # number of ReadExReq MSHR misses
system.l2.ReadExReq_mshr_miss_latency::.cpu.data   2658161500                       # number of ReadExReq MSHR miss cycles
system.l2.ReadExReq_mshr_miss_latency::total   2658161500                       # number of ReadExReq MSHR miss cycles
system.l2.ReadExReq_mshr_miss_rate::.cpu.data     0.995586                       # mshr miss rate for ReadExReq accesses
system.l2.ReadExReq_mshr_miss_rate::total     0.995586                       # mshr miss rate for ReadExReq accesses
system.l2.ReadExReq_avg_mshr_miss_latency::.cpu.data 68523.445556                       # average ReadExReq mshr miss latency
system.l2.ReadExReq_avg_mshr_miss_latency::total 68523.445556                       # average ReadExReq mshr miss latency
system.l2.ReadCleanReq_hits::.cpu.inst         133973                       # number of ReadCleanReq hits
system.l2.ReadCleanReq_hits::total             133973                       # number of ReadCleanReq hits
system.l2.ReadCleanReq_misses::.cpu.inst          515                       # number of ReadCleanReq misses
system.l2.ReadCleanReq_misses::total              515                       # number of ReadCleanReq misses
system.l2.ReadCleanReq_miss_latency::.cpu.inst     39286000                       # number of ReadCleanReq miss cycles
system.l2.ReadCleanReq_miss_latency::total     39286000                       # number of ReadCleanReq miss cycles
system.l2.ReadCleanReq_accesses::.cpu.inst       134488                       # number of ReadCleanReq accesses(hits+misses)
system.l2.ReadCleanReq_accesses::total         134488                       # number of ReadCleanReq accesses(hits+misses)
system.l2.ReadCleanReq_miss_rate::.cpu.inst     0.003829                       # miss rate for ReadCleanReq accesses
system.l2.ReadCleanReq_miss_rate::total      0.003829                       # miss rate for ReadCleanReq accesses
system.l2.ReadCleanReq_avg_miss_latency::.cpu.inst 76283.495146                       # average ReadCleanReq miss latency
system.l2.ReadCleanReq_avg_miss_latency::total 76283.495146                       # average ReadCleanReq miss latency
system.l2.ReadCleanReq_mshr_misses::.cpu.inst          515                       # number of ReadCleanReq MSHR misses
system.l2.ReadCleanReq_mshr_misses::total          515                       # number of ReadCleanReq MSHR misses
system.l2.ReadCleanReq_mshr_miss_latency::.cpu.inst     34136000                       # number of ReadCleanReq MSHR miss cycles
system.l2.ReadCleanReq_mshr_miss_latency::total     34136000                       # number of ReadCleanReq MSHR miss cycles
system.l2.ReadCleanReq_mshr_miss_rate::.cpu.inst     0.003829                       # mshr miss rate for ReadCleanReq accesses
system.l2.ReadCleanReq_mshr_miss_rate::total     0.003829                       # mshr miss rate for ReadCleanReq accesses
system.l2.ReadCleanReq_avg_mshr_miss_latency::.cpu.inst 66283.495146                       # average ReadCleanReq mshr miss latency
system.l2.ReadCleanReq_avg_mshr_miss_latency::total 66283.495146                       # average ReadCleanReq mshr miss latency
system.l2.ReadSharedReq_hits::.cpu.data         16620                       # number of ReadSharedReq hits
system.l2.ReadSharedReq_hits::total             16620                       # number of ReadSharedReq hits
system.l2.ReadSharedReq_misses::.cpu.data          532                       # number of ReadSharedReq misses
system.l2.ReadSharedReq_misses::total             532                       # number of ReadSharedReq misses
system.l2.ReadSharedReq_miss_latency::.cpu.data     45495500                       # number of ReadSharedReq miss cycles
system.l2.ReadSharedReq_miss_latency::total     45495500                       # number of ReadSharedReq miss cycles
system.l2.ReadSharedReq_accesses::.cpu.data        17152                       # number of ReadSharedReq accesses(hits+misses)
system.l2.ReadSharedReq_accesses::total         17152                       # number of ReadSharedReq accesses(hits+misses)
system.l2.ReadSharedReq_miss_rate::.cpu.data     0.031017                       # miss rate for ReadSharedReq accesses
system.l2.ReadSharedReq_miss_rate::total     0.031017                       # miss rate for ReadSharedReq accesses
system.l2.ReadSharedReq_avg_miss_latency::.cpu.data 85517.857143                       # average ReadSharedReq miss latency
system.l2.ReadSharedReq_avg_miss_latency::total 85517.857143                       # average ReadSharedReq miss latency
system.l2.ReadSharedReq_mshr_hits::.cpu.data            4                       # number of ReadSharedReq MSHR hits
system.l2.ReadSharedReq_mshr_hits::total            4                       # number of ReadSharedReq MSHR hits
system.l2.ReadSharedReq_mshr_misses::.cpu.data          528                       # number of ReadSharedReq MSHR misses
system.l2.ReadSharedReq_mshr_misses::total          528                       # number of ReadSharedReq MSHR misses
system.l2.ReadSharedReq_mshr_miss_latency::.cpu.data     39955500                       # number of ReadSharedReq MSHR miss cycles
system.l2.ReadSharedReq_mshr_miss_latency::total     39955500                       # number of ReadSharedReq MSHR miss cycles
system.l2.ReadSharedReq_mshr_miss_rate::.cpu.data     0.030784                       # mshr miss rate for ReadSharedReq accesses
system.l2.ReadSharedReq_mshr_miss_rate::total     0.030784                       # mshr miss rate for ReadSharedReq accesses
system.l2.ReadSharedReq_avg_mshr_miss_latency::.cpu.data 75673.295455                       # average ReadSharedReq mshr miss latency
system.l2.ReadSharedReq_avg_mshr_miss_latency::total 75673.295455                       # average ReadSharedReq mshr miss latency
system.l2.power_state.pwrStateResidencyTicks::UNDEFINED  58457987500                       # Cumulative time (in ticks) in various power states
system.l2.tags.tagsinuse                 26259.747158                       # Cycle average of tags in use
system.l2.tags.total_refs                      379456                       # Total number of references to valid blocks.
system.l2.tags.sampled_refs                     39838                       # Sample count of references to valid blocks.
system.l2.tags.avg_refs                      9.524976                       # Average number of references to valid blocks.
system.l2.tags.warmup_cycle                     77000                       # Cycle when the warmup percentage was hit.
system.l2.tags.occ_blocks::.writebacks       0.332681                       # Average occupied blocks per requestor
system.l2.tags.occ_blocks::.cpu.inst       338.421696                       # Average occupied blocks per requestor
system.l2.tags.occ_blocks::.cpu.data     25920.992781                       # Average occupied blocks per requestor
system.l2.tags.occ_percent::.writebacks      0.000010                       # Average percentage of cache occupancy
system.l2.tags.occ_percent::.cpu.inst        0.010328                       # Average percentage of cache occupancy
system.l2.tags.occ_percent::.cpu.data        0.791046                       # Average percentage of cache occupancy
system.l2.tags.occ_percent::total            0.801384                       # Average percentage of cache occupancy
system.l2.tags.occ_task_id_blocks::1024         32768                       # Occupied blocks per task id
system.l2.tags.age_task_id_blocks_1024::0            4                       # Occupied blocks per task id
system.l2.tags.age_task_id_blocks_1024::1           34                       # Occupied blocks per task id
system.l2.tags.age_task_id_blocks_1024::2          407                       # Occupied blocks per task id
system.l2.tags.age_task_id_blocks_1024::3         3623                       # Occupied blocks per task id
system.l2.tags.age_task_id_blocks_1024::4        28700                       # Occupied blocks per task id
system.l2.tags.occ_task_id_percent::1024            1                       # Percentage of cache occupancy per task id
system.l2.tags.tag_accesses                   3075526                       # Number of tag accesses
system.l2.tags.data_accesses                  3075526                       # Number of data accesses
system.l2.tags.power_state.pwrStateResidencyTicks::UNDEFINED  58457987500                       # Cumulative time (in ticks) in various power states
system.mem_ctrls.avgPriority_.writebacks::samples      6489.00                       # Average QoS priority value for accepted requests
system.mem_ctrls.avgPriority_.cpu.inst::samples       515.00                       # Average QoS priority value for accepted requests
system.mem_ctrls.avgPriority_.cpu.data::samples     39317.00                       # Average QoS priority value for accepted requests
system.mem_ctrls.priorityMinLatency      0.000000018750                       # per QoS priority minimum request to response latency (s)
system.mem_ctrls.priorityMaxLatency      0.008796152500                       # per QoS priority maximum request to response latency (s)
system.mem_ctrls.numReadWriteTurnArounds          359                       # Number of turnarounds from READ to WRITE
system.mem_ctrls.numWriteReadTurnArounds          359                       # Number of turnarounds from WRITE to READ
system.mem_ctrls.numStayReadState              101142                       # Number of times bus staying in READ state
system.mem_ctrls.numStayWriteState               6122                       # Number of times bus staying in WRITE state
system.mem_ctrls.readReqs                       39835                       # Number of read requests accepted
system.mem_ctrls.writeReqs                       6489                       # Number of write requests accepted
system.mem_ctrls.readBursts                     39835                       # Number of controller read bursts, including those serviced by the write queue
system.mem_ctrls.writeBursts                     6489                       # Number of controller write bursts, including those merged in the write queue
system.mem_ctrls.servicedByWrQ                      3                       # Number of controller read bursts serviced by the write queue
system.mem_ctrls.mergedWrBursts                     0                       # Number of controller write bursts merged with an existing one
system.mem_ctrls.neitherReadNorWriteReqs            0                       # Number of requests that are neither read nor write
system.mem_ctrls.avgRdQLen                       1.00                       # Average read queue length when enqueuing
system.mem_ctrls.avgWrQLen                       9.26                       # Average write queue length when enqueuing
system.mem_ctrls.numRdRetry                         0                       # Number of times read queue was full causing retry
system.mem_ctrls.numWrRetry                         0                       # Number of times write queue was full causing retry
system.mem_ctrls.readPktSize::0                     0                       # Read request sizes (log2)
system.mem_ctrls.readPktSize::1                     0                       # Read request sizes (log2)
system.mem_ctrls.readPktSize::2                     0                       # Read request sizes (log2)
system.mem_ctrls.readPktSize::3                     0                       # Read request sizes (log2)
system.mem_ctrls.readPktSize::4                     0                       # Read request sizes (log2)
system.mem_ctrls.readPktSize::5                     0                       # Read request sizes (log2)
system.mem_ctrls.readPktSize::6                 39835                       # Read request sizes (log2)
system.mem_ctrls.writePktSize::0                    0                       # Write request sizes (log2)
system.mem_ctrls.writePktSize::1                    0                       # Write request sizes (log2)
system.mem_ctrls.writePktSize::2                    0                       # Write request sizes (log2)
system.mem_ctrls.writePktSize::3                    0                       # Write request sizes (log2)
system.mem_ctrls.writePktSize::4                    0                       # Write request sizes (log2)
system.mem_ctrls.writePktSize::5                    0                       # Write request sizes (log2)
system.mem_ctrls.writePktSize::6                 6489                       # Write request sizes (log2)
system.mem_ctrls.rdQLenPdf::0                   39639                       # What read queue length does an incoming req see
system.mem_ctrls.rdQLenPdf::1                     186                       # What read queue length does an incoming req see
system.mem_ctrls.rdQLenPdf::2                       7                       # What read queue length does an incoming req see
system.mem_ctrls.rdQLenPdf::3                       0                       # What read queue length does an incoming req see
system.mem_ctrls.rdQLenPdf::4                       0                       # What read queue length does an incoming req see
system.mem_ctrls.rdQLenPdf::5                       0                       # What read queue length does an incoming req see
[...]
system.mem_ctrls.dram.bw_write::.writebacks      7104179                       # Write bandwidth from this memory (bytes/s)
system.mem_ctrls.dram.bw_write::total         7104179                       # Write bandwidth from this memory (bytes/s)
system.mem_ctrls.dram.bw_total::.writebacks      7104179                       # Total bandwidth to/from this memory (bytes/s)
system.mem_ctrls.dram.bw_total::.cpu.inst       563824                       # Total bandwidth to/from this memory (bytes/s)
system.mem_ctrls.dram.bw_total::.cpu.data     43047667                       # Total bandwidth to/from this memory (bytes/s)
system.mem_ctrls.dram.bw_total::total        50715670                       # Total bandwidth to/from this memory (bytes/s)
system.mem_ctrls.dram.readBursts                39832                       # Number of DRAM read bursts
system.mem_ctrls.dram.writeBursts                6467                       # Number of DRAM write bursts
system.mem_ctrls.dram.perBankRdBursts::0         2523                       # Per bank write bursts
system.mem_ctrls.dram.perBankRdBursts::1         2511                       # Per bank write bursts
system.mem_ctrls.dram.perBankRdBursts::2         2472                       # Per bank write bursts
system.mem_ctrls.dram.perBankRdBursts::3         2536                       # Per bank write bursts
system.mem_ctrls.dram.perBankRdBursts::4         2482                       # Per bank write bursts
system.mem_ctrls.dram.perBankRdBursts::5         2457                       # Per bank write bursts
system.mem_ctrls.dram.perBankRdBursts::6         2384                       # Per bank write bursts
system.mem_ctrls.dram.perBankRdBursts::7         2458                       # Per bank write bursts
system.mem_ctrls.dram.perBankRdBursts::8         2486                       # Per bank write bursts
system.mem_ctrls.dram.perBankRdBursts::9         2497                       # Per bank write bursts
system.mem_ctrls.dram.perBankRdBursts::10         2487                       # Per bank write bursts
system.mem_ctrls.dram.perBankRdBursts::11         2525                       # Per bank write bursts
system.mem_ctrls.dram.perBankRdBursts::12         2493                       # Per bank write bursts
system.mem_ctrls.dram.perBankRdBursts::13         2482                       # Per bank write bursts
system.mem_ctrls.dram.perBankRdBursts::14         2512                       # Per bank write bursts
system.mem_ctrls.dram.perBankRdBursts::15         2527                       # Per bank write bursts
system.mem_ctrls.dram.perBankWrBursts::0          432                       # Per bank write bursts
system.mem_ctrls.dram.perBankWrBursts::1          423                       # Per bank write bursts
system.mem_ctrls.dram.perBankWrBursts::2          414                       # Per bank write bursts
system.mem_ctrls.dram.perBankWrBursts::3          411                       # Per bank write bursts
system.mem_ctrls.dram.perBankWrBursts::4          386                       # Per bank write bursts
system.mem_ctrls.dram.perBankWrBursts::5          408                       # Per bank write bursts
system.mem_ctrls.dram.perBankWrBursts::6          336                       # Per bank write bursts
system.mem_ctrls.dram.perBankWrBursts::7          384                       # Per bank write bursts
system.mem_ctrls.dram.perBankWrBursts::8          413                       # Per bank write bursts
system.mem_ctrls.dram.perBankWrBursts::9          402                       # Per bank write bursts
system.mem_ctrls.dram.perBankWrBursts::10          404                       # Per bank write bursts
system.mem_ctrls.dram.perBankWrBursts::11          410                       # Per bank write bursts
system.mem_ctrls.dram.perBankWrBursts::12          397                       # Per bank write bursts
system.mem_ctrls.dram.perBankWrBursts::13          411                       # Per bank write bursts
system.mem_ctrls.dram.perBankWrBursts::14          404                       # Per bank write bursts
system.mem_ctrls.dram.perBankWrBursts::15          432                       # Per bank write bursts
system.mem_ctrls.dram.totQLat               350273250                       # Total ticks spent queuing
system.mem_ctrls.dram.totBusLat             199160000                       # Total ticks spent in databus transfers
system.mem_ctrls.dram.totMemAccLat         1097123250                       # Total ticks spent from burst creation until serviced by the DRAM
system.mem_ctrls.dram.avgQLat                 8793.77                       # Average queueing delay per DRAM burst
system.mem_ctrls.dram.avgBusLat               5000.00                       # Average bus latency per DRAM burst
system.mem_ctrls.dram.avgMemAccLat           27543.77                       # Average memory access latency per DRAM burst
system.mem_ctrls.dram.readRowHits               30171                       # Number of row buffer hits during reads
system.mem_ctrls.dram.writeRowHits               5421                       # Number of row buffer hits during writes
system.mem_ctrls.dram.readRowHitRate            75.75                       # Row buffer hit rate for reads
system.mem_ctrls.dram.writeRowHitRate           83.83                       # Row buffer hit rate for writes
system.mem_ctrls.dram.bytesPerActivate::samples        10706                       # Bytes accessed per row activation
system.mem_ctrls.dram.bytesPerActivate::mean   276.755464                       # Bytes accessed per row activation
system.mem_ctrls.dram.bytesPerActivate::gmean   214.503364                       # Bytes accessed per row activation
system.mem_ctrls.dram.bytesPerActivate::stdev   230.810836                       # Bytes accessed per row activation
system.mem_ctrls.dram.bytesPerActivate::0-127         1198     11.19%     11.19% # Bytes accessed per row activation
system.mem_ctrls.dram.bytesPerActivate::128-255         6866     64.13%     75.32% # Bytes accessed per row activation
system.mem_ctrls.dram.bytesPerActivate::256-383          578      5.40%     80.72% # Bytes accessed per row activation
system.mem_ctrls.dram.bytesPerActivate::384-511          297      2.77%     83.50% # Bytes accessed per row activation
system.mem_ctrls.dram.bytesPerActivate::512-639          538      5.03%     88.52% # Bytes accessed per row activation
system.mem_ctrls.dram.bytesPerActivate::640-767          438      4.09%     92.61% # Bytes accessed per row activation
system.mem_ctrls.dram.bytesPerActivate::768-895          138      1.29%     93.90% # Bytes accessed per row activation
system.mem_ctrls.dram.bytesPerActivate::896-1023          458      4.28%     98.18% # Bytes accessed per row activation
system.mem_ctrls.dram.bytesPerActivate::1024-1151          195      1.82%    100.00% # Bytes accessed per row activation
system.mem_ctrls.dram.bytesPerActivate::total        10706                       # Bytes accessed per row activation
system.mem_ctrls.dram.bytesRead               2549248                       # Total number of bytes read from DRAM
system.mem_ctrls.dram.bytesWritten             413888                       # Total number of bytes written to DRAM
system.mem_ctrls.dram.avgRdBW               43.608207                       # Average DRAM read bandwidth in MiBytes/s
system.mem_ctrls.dram.avgWrBW                7.080093                       # Average DRAM write bandwidth in MiBytes/s
system.mem_ctrls.dram.peakBW                 12800.00                       # Theoretical peak bandwidth in MiByte/s
system.mem_ctrls.dram.busUtil                    0.40                       # Data bus utilization in percentage
system.mem_ctrls.dram.busUtilRead                0.34                       # Data bus utilization in percentage for reads
system.mem_ctrls.dram.busUtilWrite               0.06                       # Data bus utilization in percentage for writes
system.mem_ctrls.dram.pageHitRate               76.87                       # Row buffer hit rate, read and write combined
system.mem_ctrls.dram.power_state.pwrStateResidencyTicks::UNDEFINED  58457987500                       # Cumulative time (in ticks) in various power states
system.mem_ctrls.dram.rank0.actEnergy        38962980                       # Energy for activate commands per rank (pJ)
system.mem_ctrls.dram.rank0.preEnergy        20705520                       # Energy for precharge commands per rank (pJ)
system.mem_ctrls.dram.rank0.readEnergy      141536220                       # Energy for read commands per rank (pJ)
system.mem_ctrls.dram.rank0.writeEnergy      16672680                       # Energy for write commands per rank (pJ)
system.mem_ctrls.dram.rank0.refreshEnergy 4614102480.000001                       # Energy for refresh commands per rank (pJ)
system.mem_ctrls.dram.rank0.actBackEnergy  12705704130                       # Energy for active background per rank (pJ)
system.mem_ctrls.dram.rank0.preBackEnergy  11748326880                       # Energy for precharge background per rank (pJ)
system.mem_ctrls.dram.rank0.actPowerDownEnergy            0                       # Energy for active power-down per rank (pJ)
system.mem_ctrls.dram.rank0.prePowerDownEnergy            0                       # Energy for precharge power-down per rank (pJ)
system.mem_ctrls.dram.rank0.selfRefreshEnergy            0                       # Energy for self refresh per rank (pJ)
system.mem_ctrls.dram.rank0.totalEnergy   29286010890                       # Total energy per rank (pJ)
system.mem_ctrls.dram.rank0.averagePower   500.975352                       # Core power per rank (mW)
system.mem_ctrls.dram.rank0.totalIdleTime            0                       # Total Idle time Per DRAM Rank
system.mem_ctrls.dram.rank0.pwrStateTime::IDLE  30430287250                       # Time in different power states
system.mem_ctrls.dram.rank0.pwrStateTime::REF   1951820000                       # Time in different power states
system.mem_ctrls.dram.rank0.pwrStateTime::SREF            0                       # Time in different power states
system.mem_ctrls.dram.rank0.pwrStateTime::PRE_PDN            0                       # Time in different power states
system.mem_ctrls.dram.rank0.pwrStateTime::ACT  26075880250                       # Time in different power states
system.mem_ctrls.dram.rank0.pwrStateTime::ACT_PDN            0                       # Time in different power states
system.mem_ctrls.dram.rank1.actEnergy        37485000                       # Energy for activate commands per rank (pJ)
system.mem_ctrls.dram.rank1.preEnergy        19923750                       # Energy for precharge commands per rank (pJ)
system.mem_ctrls.dram.rank1.readEnergy      142864260                       # Energy for read commands per rank (pJ)
system.mem_ctrls.dram.rank1.writeEnergy      17085060                       # Energy for write commands per rank (pJ)
system.mem_ctrls.dram.rank1.refreshEnergy 4614102480.000001                       # Energy for refresh commands per rank (pJ)
system.mem_ctrls.dram.rank1.actBackEnergy  12469235640                       # Energy for active background per rank (pJ)
system.mem_ctrls.dram.rank1.preBackEnergy  11947458240                       # Energy for precharge background per rank (pJ)
system.mem_ctrls.dram.rank1.actPowerDownEnergy            0                       # Energy for active power-down per rank (pJ)
system.mem_ctrls.dram.rank1.prePowerDownEnergy            0                       # Energy for precharge power-down per rank (pJ)
system.mem_ctrls.dram.rank1.selfRefreshEnergy            0                       # Energy for self refresh per rank (pJ)
system.mem_ctrls.dram.rank1.totalEnergy   29248154430                       # Total energy per rank (pJ)
system.mem_ctrls.dram.rank1.averagePower   500.327768                       # Core power per rank (mW)
system.mem_ctrls.dram.rank1.totalIdleTime            0                       # Total Idle time Per DRAM Rank
system.mem_ctrls.dram.rank1.pwrStateTime::IDLE  30950268500                       # Time in different power states
system.mem_ctrls.dram.rank1.pwrStateTime::REF   1951820000                       # Time in different power states
system.mem_ctrls.dram.rank1.pwrStateTime::SREF            0                       # Time in different power states
system.mem_ctrls.dram.rank1.pwrStateTime::PRE_PDN            0                       # Time in different power states
system.mem_ctrls.dram.rank1.pwrStateTime::ACT  25555899000                       # Time in different power states
system.mem_ctrls.dram.rank1.pwrStateTime::ACT_PDN            0                       # Time in different power states
system.mem_ctrls.power_state.pwrStateResidencyTicks::UNDEFINED  58457987500                       # Cumulative time (in ticks) in various power states
system.membus.trans_dist::ReadResp               1043                       # Transaction distribution
system.membus.trans_dist::WritebackDirty         6489                       # Transaction distribution
system.membus.trans_dist::CleanEvict              183                       # Transaction distribution
system.membus.trans_dist::ReadExReq             38792                       # Transaction distribution
system.membus.trans_dist::ReadExResp            38792                       # Transaction distribution
system.membus.trans_dist::ReadSharedReq          1043                       # Transaction distribution
system.membus.pkt_count_system.l2.mem_side_port::system.mem_ctrls.port        86342                       # Packet count per connected requestor and responder (bytes)
system.membus.pkt_count::total                  86342                       # Packet count per connected requestor and responder (bytes)
system.membus.pkt_size_system.l2.mem_side_port::system.mem_ctrls.port      2964736                       # Cumulative packet size per connected requestor and responder (bytes)
system.membus.pkt_size::total                 2964736                       # Cumulative packet size per connected requestor and responder (bytes)
system.membus.snoops                                0                       # Total snoops (count)
system.membus.snoopTraffic                          0                       # Total snoop traffic (bytes)
system.membus.snoop_fanout::samples             39835                       # Request fanout histogram
system.membus.snoop_fanout::mean                    0                       # Request fanout histogram
system.membus.snoop_fanout::stdev                   0                       # Request fanout histogram
system.membus.snoop_fanout::underflows              0      0.00%      0.00% # Request fanout histogram
system.membus.snoop_fanout::0                   39835    100.00%    100.00% # Request fanout histogram
system.membus.snoop_fanout::1                       0      0.00%    100.00% # Request fanout histogram
system.membus.snoop_fanout::overflows               0      0.00%    100.00% # Request fanout histogram
system.membus.snoop_fanout::min_value               0                       # Request fanout histogram
system.membus.snoop_fanout::max_value               0                       # Request fanout histogram
system.membus.snoop_fanout::total               39835                       # Request fanout histogram
system.membus.power_state.pwrStateResidencyTicks::UNDEFINED  58457987500                       # Cumulative time (in ticks) in various power states
system.membus.reqLayer0.occupancy            82004000                       # Layer occupancy (ticks)
system.membus.reqLayer0.utilization               0.1                       # Layer utilization (%)
system.membus.respLayer1.occupancy          211451250                       # Layer occupancy (ticks)
system.membus.respLayer1.utilization              0.4                       # Layer utilization (%)
system.tol2bus.trans_dist::ReadResp            151640                       # Transaction distribution
system.tol2bus.trans_dist::WritebackDirty        57724                       # Transaction distribution
system.tol2bus.trans_dist::WritebackClean       134097                       # Transaction distribution
system.tol2bus.trans_dist::CleanEvict            4438                       # Transaction distribution
system.tol2bus.trans_dist::ReadExReq            38964                       # Transaction distribution
system.tol2bus.trans_dist::ReadExResp           38964                       # Transaction distribution
system.tol2bus.trans_dist::ReadCleanReq        134488                       # Transaction distribution
system.tol2bus.trans_dist::ReadSharedReq        17152                       # Transaction distribution
system.tol2bus.pkt_count_system.cpu.icache.mem_side_port::system.l2.cpu_side_port       403073                       # Packet count per connected requestor and responder (bytes)
system.tol2bus.pkt_count_system.cpu.dcache.mem_side_port::system.l2.cpu_side_port       167324                       # Packet count per connected requestor and responder (bytes)
system.tol2bus.pkt_count::total                570397                       # Packet count per connected requestor and responder (bytes)
system.tol2bus.pkt_size_system.cpu.icache.mem_side_port::system.l2.cpu_side_port     17189440                       # Cumulative packet size per connected requestor and responder (bytes)
system.tol2bus.pkt_size_system.cpu.dcache.mem_side_port::system.l2.cpu_side_port      6870464                       # Cumulative packet size per connected requestor and responder (bytes)
system.tol2bus.pkt_size::total               24059904                       # Cumulative packet size per connected requestor and responder (bytes)
system.tol2bus.snoops                            7070                       # Total snoops (count)
system.tol2bus.snoopTraffic                    415296                       # Total snoop traffic (bytes)
system.tol2bus.snoop_fanout::samples           197674                       # Request fanout histogram
system.tol2bus.snoop_fanout::mean            0.003744                       # Request fanout histogram
system.tol2bus.snoop_fanout::stdev           0.061400                       # Request fanout histogram
system.tol2bus.snoop_fanout::underflows             0      0.00%      0.00% # Request fanout histogram
system.tol2bus.snoop_fanout::0                 196938     99.63%     99.63% # Request fanout histogram
system.tol2bus.snoop_fanout::1                    732      0.37%    100.00% # Request fanout histogram
system.tol2bus.snoop_fanout::2                      4      0.00%    100.00% # Request fanout histogram
system.tol2bus.snoop_fanout::overflows              0      0.00%    100.00% # Request fanout histogram
system.tol2bus.snoop_fanout::min_value              0                       # Request fanout histogram
system.tol2bus.snoop_fanout::max_value              2                       # Request fanout histogram
system.tol2bus.snoop_fanout::total             197674                       # Request fanout histogram
system.tol2bus.power_state.pwrStateResidencyTicks::UNDEFINED  58457987500                       # Cumulative time (in ticks) in various power states
system.tol2bus.reqLayer0.occupancy          375228500                       # Layer occupancy (ticks)
system.tol2bus.reqLayer0.utilization              0.6                       # Layer utilization (%)
system.tol2bus.respLayer0.occupancy         201732000                       # Layer occupancy (ticks)
system.tol2bus.respLayer0.utilization             0.3                       # Layer utilization (%)
system.tol2bus.respLayer1.occupancy          84175996                       # Layer occupancy (ticks)
system.tol2bus.respLayer1.utilization             0.1                       # Layer utilization (%)
system.voltage_domain.voltage                       1                       # Voltage in Volts

---------- End Simulation Statistics   ----------
