
---------- Begin Simulation Statistics ----------
final_tick                               115096642228                       # Number of ticks from beginning of simulation (restored from checkpoints and never reset)
host_inst_rate                                 242102                       # Simulator instruction rate (inst/s)
host_mem_usage                                 673616                       # Number of bytes of host memory used
host_op_rate                                   242577                       # Simulator op (including micro ops) rate (op/s)
host_seconds                                   413.05                       # Real time elapsed on the host
host_tick_rate                              278650930                       # Simulator tick rate (ticks/s)
sim_freq                                 1000000000000                       # Frequency of simulated ticks
sim_insts                                   100000001                       # Number of instructions simulated
sim_ops                                     100196356                       # Number of ops (including micro ops) simulated
sim_seconds                                  0.115097                       # Number of seconds simulated
sim_ticks                                115096642228                       # Number of ticks simulated
system.cpu.committedInsts                   100000001                       # Number of instructions committed
system.cpu.committedOps                     100196356                       # Number of ops (including micro ops) committed
system.cpu.cpi                               1.725587                       # CPI: cycles per instruction
system.cpu.discardedOps                        189523                       # Number of ops (including micro ops) which were discarded before commit
system.cpu.idleCycles                        39582793                       # Total number of cycles that the object has spent stopped
system.cpu.ipc                               0.579513                       # IPC: instructions per cycle
system.cpu.numCycles                        172558684                       # number of cpu cycles simulated
system.cpu.numFetchSuspends                         0                       # Number of times Execute suspended instruction fetching
system.cpu.numWorkItemsCompleted                    0                       # number of work items this cpu completed
system.cpu.numWorkItemsStarted                      0                       # number of work items this cpu started
system.cpu.op_class_0::No_OpClass                   0      0.00%      0.00% # Class of committed instruction
system.cpu.op_class_0::IntAlu                46526879     46.44%     46.44% # Class of committed instruction
system.cpu.op_class_0::IntMult                  20723      0.02%     46.46% # Class of committed instruction
system.cpu.op_class_0::IntDiv                       0      0.00%     46.46% # Class of committed instruction
system.cpu.op_class_0::FloatAdd                     0      0.00%     46.46% # Class of committed instruction
system.cpu.op_class_0::FloatCmp                     0      0.00%     46.46% # Class of committed instruction
system.cpu.op_class_0::FloatCvt                     0      0.00%     46.46% # Class of committed instruction
system.cpu.op_class_0::FloatMult                    0      0.00%     46.46% # Class of committed instruction
system.cpu.op_class_0::FloatMultAcc                 0      0.00%     46.46% # Class of committed instruction
system.cpu.op_class_0::FloatDiv                     0      0.00%     46.46% # Class of committed instruction
system.cpu.op_class_0::FloatMisc                    0      0.00%     46.46% # Class of committed instruction
system.cpu.op_class_0::FloatSqrt                    0      0.00%     46.46% # Class of committed instruction
system.cpu.op_class_0::SimdAdd                      0      0.00%     46.46% # Class of committed instruction
system.cpu.op_class_0::SimdAddAcc                   0      0.00%     46.46% # Class of committed instruction
system.cpu.op_class_0::SimdAlu                      0      0.00%     46.46% # Class of committed instruction
system.cpu.op_class_0::SimdCmp                      0      0.00%     46.46% # Class of committed instruction
system.cpu.op_class_0::SimdCvt                      0      0.00%     46.46% # Class of committed instruction
system.cpu.op_class_0::SimdMisc                     0      0.00%     46.46% # Class of committed instruction
system.cpu.op_class_0::SimdMult                     0      0.00%     46.46% # Class of committed instruction
system.cpu.op_class_0::SimdMultAcc                  0      0.00%     46.46% # Class of committed instruction
system.cpu.op_class_0::SimdShift                    0      0.00%     46.46% # Class of committed instruction
system.cpu.op_class_0::SimdShiftAcc                 0      0.00%     46.46% # Class of committed instruction
system.cpu.op_class_0::SimdDiv                      0      0.00%     46.46% # Class of committed instruction
system.cpu.op_class_0::SimdSqrt                     0      0.00%     46.46% # Class of committed instruction
system.cpu.op_class_0::SimdFloatAdd                 0      0.00%     46.46% # Class of committed instruction
system.cpu.op_class_0::SimdFloatAlu                 0      0.00%     46.46% # Class of committed instruction
system.cpu.op_class_0::SimdFloatCmp                 0      0.00%     46.46% # Class of committed instruction
system.cpu.op_class_0::SimdFloatCvt                 0      0.00%     46.46% # Class of committed instruction
system.cpu.op_class_0::SimdFloatDiv                 0      0.00%     46.46% # Class of committed instruction
system.cpu.op_class_0::SimdFloatMisc               18      0.00%     46.46% # Class of committed instruction
system.cpu.op_class_0::SimdFloatMult                0      0.00%     46.46% # Class of committed instruction
system.cpu.op_class_0::SimdFloatMultAcc             0      0.00%     46.46% # Class of committed instruction
system.cpu.op_class_0::SimdFloatSqrt                0      0.00%     46.46% # Class of committed instruction
system.cpu.op_class_0::SimdReduceAdd                0      0.00%     46.46% # Class of committed instruction
system.cpu.op_class_0::SimdReduceAlu                0      0.00%     46.46% # Class of committed instruction
system.cpu.op_class_0::SimdReduceCmp                0      0.00%     46.46% # Class of committed instruction
system.cpu.op_class_0::SimdFloatReduceAdd            0      0.00%     46.46% # Class of committed instruction
system.cpu.op_class_0::SimdFloatReduceCmp            0      0.00%     46.46% # Class of committed instruction
system.cpu.op_class_0::SimdAes                      0      0.00%     46.46% # Class of committed instruction
system.cpu.op_class_0::SimdAesMix                   0      0.00%     46.46% # Class of committed instruction
system.cpu.op_class_0::SimdSha1Hash                 0      0.00%     46.46% # Class of committed instruction
system.cpu.op_class_0::SimdSha1Hash2                0      0.00%     46.46% # Class of committed instruction
system.cpu.op_class_0::SimdSha256Hash               0      0.00%     46.46% # Class of committed instruction
system.cpu.op_class_0::SimdSha256Hash2              0      0.00%     46.46% # Class of committed instruction
system.cpu.op_class_0::SimdShaSigma2                0      0.00%     46.46% # Class of committed instruction
system.cpu.op_class_0::SimdShaSigma3                0      0.00%     46.46% # Class of committed instruction
system.cpu.op_class_0::SimdPredAlu                  0      0.00%     46.46% # Class of committed instruction
system.cpu.op_class_0::MemRead               42690524     42.61%     89.06% # Class of committed instruction
system.cpu.op_class_0::MemWrite              10958212     10.94%    100.00% # Class of committed instruction
system.cpu.op_class_0::FloatMemRead                 0      0.00%    100.00% # Class of committed instruction
system.cpu.op_class_0::FloatMemWrite                0      0.00%    100.00% # Class of committed instruction
system.cpu.op_class_0::IprAccess                    0      0.00%    100.00% # Class of committed instruction
system.cpu.op_class_0::InstPrefetch                 0      0.00%    100.00% # Class of committed instruction
system.cpu.op_class_0::total                100196356                       # Class of committed instruction
system.cpu.tickCycles                       132975891                       # Number of cycles that the object actually ticked
system.cpu.workload.numSyscalls                    85                       # Number of system calls
system.membus.snoop_filter.hit_multi_requests            0                       # Number of requests hitting in the snoop filter with multiple (>1) holders of the requested data.
system.membus.snoop_filter.hit_multi_snoops            0                       # Number of snoops hitting in the snoop filter with multiple (>1) holders of the requested data.
system.membus.snoop_filter.hit_single_requests       278611                       # Number of requests hitting in the snoop filter with a single holder of the requested data.
system.membus.snoop_filter.hit_single_snoops            0                       # Number of snoops hitting in the snoop filter with a single holder of the requested data.
system.membus.snoop_filter.tot_requests        565901                       # Total number of requests made to the snoop filter.
system.membus.snoop_filter.tot_snoops               0                       # Total number of snoops made to the snoop filter.
system.tol2bus.snoop_filter.hit_multi_requests          658                       # Number of requests hitting in the snoop filter with multiple (>1) holders of the requested data.
system.tol2bus.snoop_filter.hit_multi_snoops           17                       # Number of snoops hitting in the snoop filter with multiple (>1) holders of the requested data.
system.tol2bus.snoop_filter.hit_single_requests       780393                       # Number of requests hitting in the snoop filter with a single holder of the requested data.
system.tol2bus.snoop_filter.hit_single_snoops        14193                       # Number of snoops hitting in the snoop filter with a single holder of the requested data.
system.tol2bus.snoop_filter.tot_requests      1562321                       # Total number of requests made to the snoop filter.
system.tol2bus.snoop_filter.tot_snoops          14210                       # Total number of snoops made to the snoop filter.
system.clk_domain.clock                          1000                       # Clock period in ticks
system.cpu.branchPred.lookups                 4485786                       # Number of BP lookups
system.cpu.branchPred.condPredicted           3735468                       # Number of conditional branches predicted
system.cpu.branchPred.condIncorrect             81003                       # Number of conditional branches incorrect
system.cpu.branchPred.BTBLookups              2103810                       # Number of BTB lookups
system.cpu.branchPred.BTBHits                 2101843                       # Number of BTB hits
system.cpu.branchPred.BTBHitPct             99.906503                       # BTB Hit Percentage
system.cpu.branchPred.RASUsed                   65385                       # Number of times the RAS was used to get a target.
system.cpu.branchPred.RASIncorrect                 15                       # Number of incorrect RAS predictions.
system.cpu.branchPred.indirectLookups             684                       # Number of indirect predictor lookups.
system.cpu.branchPred.indirectHits                285                       # Number of indirect target hits.
system.cpu.branchPred.indirectMisses              399                       # Number of indirect misses.
system.cpu.branchPred.indirectMispredicted          158                       # Number of mispredicted indirect branches.
system.cpu.dcache.demand_hits::.cpu.data     51240791                       # number of demand (read+write) hits
system.cpu.dcache.demand_hits::total         51240791                       # number of demand (read+write) hits
system.cpu.dcache.overall_hits::.cpu.data     51241264                       # number of overall hits
system.cpu.dcache.overall_hits::total        51241264                       # number of overall hits
system.cpu.dcache.demand_misses::.cpu.data       833802                       # number of demand (read+write) misses
system.cpu.dcache.demand_misses::total         833802                       # number of demand (read+write) misses
system.cpu.dcache.overall_misses::.cpu.data       841748                       # number of overall misses
system.cpu.dcache.overall_misses::total        841748                       # number of overall misses
system.cpu.dcache.demand_miss_latency::.cpu.data  37770456450                       # number of demand (read+write) miss cycles
system.cpu.dcache.demand_miss_latency::total  37770456450                       # number of demand (read+write) miss cycles
system.cpu.dcache.overall_miss_latency::.cpu.data  37770456450                       # number of overall miss cycles
system.cpu.dcache.overall_miss_latency::total  37770456450                       # number of overall miss cycles
system.cpu.dcache.demand_accesses::.cpu.data     52074593                       # number of demand (read+write) accesses
system.cpu.dcache.demand_accesses::total     52074593                       # number of demand (read+write) accesses
system.cpu.dcache.overall_accesses::.cpu.data     52083012                       # number of overall (read+write) accesses
system.cpu.dcache.overall_accesses::total     52083012                       # number of overall (read+write) accesses
system.cpu.dcache.demand_miss_rate::.cpu.data     0.016012                       # miss rate for demand accesses
system.cpu.dcache.demand_miss_rate::total     0.016012                       # miss rate for demand accesses
system.cpu.dcache.overall_miss_rate::.cpu.data     0.016162                       # miss rate for overall accesses
system.cpu.dcache.overall_miss_rate::total     0.016162                       # miss rate for overall accesses
system.cpu.dcache.demand_avg_miss_latency::.cpu.data 45299.071542                       # average overall miss latency
system.cpu.dcache.demand_avg_miss_latency::total 45299.071542                       # average overall miss latency
system.cpu.dcache.overall_avg_miss_latency::.cpu.data 44871.453749                       # average overall miss latency
system.cpu.dcache.overall_avg_miss_latency::total 44871.453749                       # average overall miss latency
system.cpu.dcache.blocked_cycles::no_mshrs       163191                       # number of cycles access was blocked
system.cpu.dcache.blocked_cycles::no_targets            0                       # number of cycles access was blocked
system.cpu.dcache.blocked::no_mshrs              3504                       # number of cycles access was blocked
system.cpu.dcache.blocked::no_targets               0                       # number of cycles access was blocked
system.cpu.dcache.avg_blocked_cycles::no_mshrs    46.572774                       # average number of cycles each access was blocked
system.cpu.dcache.avg_blocked_cycles::no_targets          nan                       # average number of cycles each access was blocked
system.cpu.dcache.writebacks::.writebacks       679873                       # number of writebacks
system.cpu.dcache.writebacks::total            679873                       # number of writebacks
system.cpu.dcache.demand_mshr_hits::.cpu.data        60575                       # number of demand (read+write) MSHR hits
system.cpu.dcache.demand_mshr_hits::total        60575                       # number of demand (read+write) MSHR hits
system.cpu.dcache.overall_mshr_hits::.cpu.data        60575                       # number of overall MSHR hits
system.cpu.dcache.overall_mshr_hits::total        60575                       # number of overall MSHR hits
system.cpu.dcache.demand_mshr_misses::.cpu.data       773227                       # number of demand (read+write) MSHR misses
system.cpu.dcache.demand_mshr_misses::total       773227                       # number of demand (read+write) MSHR misses
system.cpu.dcache.overall_mshr_misses::.cpu.data       781170                       # number of overall MSHR misses
system.cpu.dcache.overall_mshr_misses::total       781170                       # number of overall MSHR misses
system.cpu.dcache.demand_mshr_miss_latency::.cpu.data  35046091622                       # number of demand (read+write) MSHR miss cycles
system.cpu.dcache.demand_mshr_miss_latency::total  35046091622                       # number of demand (read+write) MSHR miss cycles
system.cpu.dcache.overall_mshr_miss_latency::.cpu.data  35754208836                       # number of overall MSHR miss cycles
system.cpu.dcache.overall_mshr_miss_latency::total  35754208836                       # number of overall MSHR miss cycles
system.cpu.dcache.demand_mshr_miss_rate::.cpu.data     0.014848                       # mshr miss rate for demand accesses
system.cpu.dcache.demand_mshr_miss_rate::total     0.014848                       # mshr miss rate for demand accesses
system.cpu.dcache.overall_mshr_miss_rate::.cpu.data     0.014999                       # mshr miss rate for overall accesses
system.cpu.dcache.overall_mshr_miss_rate::total     0.014999                       # mshr miss rate for overall accesses
system.cpu.dcache.demand_avg_mshr_miss_latency::.cpu.data 45324.454037                       # average overall mshr miss latency
system.cpu.dcache.demand_avg_mshr_miss_latency::total 45324.454037                       # average overall mshr miss latency
system.cpu.dcache.overall_avg_mshr_miss_latency::.cpu.data 45770.074166                       # average overall mshr miss latency
system.cpu.dcache.overall_avg_mshr_miss_latency::total 45770.074166                       # average overall mshr miss latency
system.cpu.dcache.replacements                 780146                       # number of replacements
system.cpu.dcache.ReadReq_hits::.cpu.data     40672971                       # number of ReadReq hits
system.cpu.dcache.ReadReq_hits::total        40672971                       # number of ReadReq hits
system.cpu.dcache.ReadReq_misses::.cpu.data       452543                       # number of ReadReq misses
system.cpu.dcache.ReadReq_misses::total        452543                       # number of ReadReq misses
system.cpu.dcache.ReadReq_miss_latency::.cpu.data  15844679047                       # number of ReadReq miss cycles
system.cpu.dcache.ReadReq_miss_latency::total  15844679047                       # number of ReadReq miss cycles
system.cpu.dcache.ReadReq_accesses::.cpu.data     41125514                       # number of ReadReq accesses(hits+misses)
system.cpu.dcache.ReadReq_accesses::total     41125514                       # number of ReadReq accesses(hits+misses)
system.cpu.dcache.ReadReq_miss_rate::.cpu.data     0.011004                       # miss rate for ReadReq accesses
system.cpu.dcache.ReadReq_miss_rate::total     0.011004                       # miss rate for ReadReq accesses
system.cpu.dcache.ReadReq_avg_miss_latency::.cpu.data 35012.538139                       # average ReadReq miss latency
system.cpu.dcache.ReadReq_avg_miss_latency::total 35012.538139                       # average ReadReq miss latency
system.cpu.dcache.ReadReq_mshr_hits::.cpu.data         1485                       # number of ReadReq MSHR hits
system.cpu.dcache.ReadReq_mshr_hits::total         1485                       # number of ReadReq MSHR hits
system.cpu.dcache.ReadReq_mshr_misses::.cpu.data       451058                       # number of ReadReq MSHR misses
system.cpu.dcache.ReadReq_mshr_misses::total       451058                       # number of ReadReq MSHR misses
system.cpu.dcache.ReadReq_mshr_miss_latency::.cpu.data  15195389898                       # number of ReadReq MSHR miss cycles
system.cpu.dcache.ReadReq_mshr_miss_latency::total  15195389898                       # number of ReadReq MSHR miss cycles
system.cpu.dcache.ReadReq_mshr_miss_rate::.cpu.data     0.010968                       # mshr miss rate for ReadReq accesses
system.cpu.dcache.ReadReq_mshr_miss_rate::total     0.010968                       # mshr miss rate for ReadReq accesses
system.cpu.dcache.ReadReq_avg_mshr_miss_latency::.cpu.data 33688.328104                       # average ReadReq mshr miss latency
system.cpu.dcache.ReadReq_avg_mshr_miss_latency::total 33688.328104                       # average ReadReq mshr miss latency
system.cpu.dcache.WriteReq_hits::.cpu.data     10567820                       # number of WriteReq hits
system.cpu.dcache.WriteReq_hits::total       10567820                       # number of WriteReq hits
system.cpu.dcache.WriteReq_misses::.cpu.data       381259                       # number of WriteReq misses
system.cpu.dcache.WriteReq_misses::total       381259                       # number of WriteReq misses
system.cpu.dcache.WriteReq_miss_latency::.cpu.data  21925777403                       # number of WriteReq miss cycles
system.cpu.dcache.WriteReq_miss_latency::total  21925777403                       # number of WriteReq miss cycles
system.cpu.dcache.WriteReq_accesses::.cpu.data     10949079                       # number of WriteReq accesses(hits+misses)
system.cpu.dcache.WriteReq_accesses::total     10949079                       # number of WriteReq accesses(hits+misses)
system.cpu.dcache.WriteReq_miss_rate::.cpu.data     0.034821                       # miss rate for WriteReq accesses
system.cpu.dcache.WriteReq_miss_rate::total     0.034821                       # miss rate for WriteReq accesses
system.cpu.dcache.WriteReq_avg_miss_latency::.cpu.data 57508.878225                       # average WriteReq miss latency
system.cpu.dcache.WriteReq_avg_miss_latency::total 57508.878225                       # average WriteReq miss latency
system.cpu.dcache.WriteReq_mshr_hits::.cpu.data        59090                       # number of WriteReq MSHR hits
system.cpu.dcache.WriteReq_mshr_hits::total        59090                       # number of WriteReq MSHR hits
system.cpu.dcache.WriteReq_mshr_misses::.cpu.data       322169                       # number of WriteReq MSHR misses
system.cpu.dcache.WriteReq_mshr_misses::total       322169                       # number of WriteReq MSHR misses
system.cpu.dcache.WriteReq_mshr_miss_latency::.cpu.data  19850701724                       # number of WriteReq MSHR miss cycles
system.cpu.dcache.WriteReq_mshr_miss_latency::total  19850701724                       # number of WriteReq MSHR miss cycles
system.cpu.dcache.WriteReq_mshr_miss_rate::.cpu.data     0.029424                       # mshr miss rate for WriteReq accesses
system.cpu.dcache.WriteReq_mshr_miss_rate::total     0.029424                       # mshr miss rate for WriteReq accesses
system.cpu.dcache.WriteReq_avg_mshr_miss_latency::.cpu.data 61615.803271                       # average WriteReq mshr miss latency
system.cpu.dcache.WriteReq_avg_mshr_miss_latency::total 61615.803271                       # average WriteReq mshr miss latency
system.cpu.dcache.SoftPFReq_hits::.cpu.data          473                       # number of SoftPFReq hits
system.cpu.dcache.SoftPFReq_hits::total           473                       # number of SoftPFReq hits
system.cpu.dcache.SoftPFReq_misses::.cpu.data         7946                       # number of SoftPFReq misses
system.cpu.dcache.SoftPFReq_misses::total         7946                       # number of SoftPFReq misses
system.cpu.dcache.SoftPFReq_accesses::.cpu.data         8419                       # number of SoftPFReq accesses(hits+misses)
system.cpu.dcache.SoftPFReq_accesses::total         8419                       # number of SoftPFReq accesses(hits+misses)
system.cpu.dcache.SoftPFReq_miss_rate::.cpu.data     0.943818                       # miss rate for SoftPFReq accesses
system.cpu.dcache.SoftPFReq_miss_rate::total     0.943818                       # miss rate for SoftPFReq accesses
system.cpu.dcache.SoftPFReq_mshr_misses::.cpu.data         7943                       # number of SoftPFReq MSHR misses
system.cpu.dcache.SoftPFReq_mshr_misses::total         7943                       # number of SoftPFReq MSHR misses
system.cpu.dcache.SoftPFReq_mshr_miss_latency::.cpu.data    708117214                       # number of SoftPFReq MSHR miss cycles
system.cpu.dcache.SoftPFReq_mshr_miss_latency::total    708117214                       # number of SoftPFReq MSHR miss cycles
system.cpu.dcache.SoftPFReq_mshr_miss_rate::.cpu.data     0.943461                       # mshr miss rate for SoftPFReq accesses
system.cpu.dcache.SoftPFReq_mshr_miss_rate::total     0.943461                       # mshr miss rate for SoftPFReq accesses
system.cpu.dcache.SoftPFReq_avg_mshr_miss_latency::.cpu.data 89149.844391                       # average SoftPFReq mshr miss latency
system.cpu.dcache.SoftPFReq_avg_mshr_miss_latency::total 89149.844391                       # average SoftPFReq mshr miss latency
system.cpu.dcache.LoadLockedReq_hits::.cpu.data           38                       # number of LoadLockedReq hits
system.cpu.dcache.LoadLockedReq_hits::total           38                       # number of LoadLockedReq hits
system.cpu.dcache.LoadLockedReq_accesses::.cpu.data           38                       # number of LoadLockedReq accesses(hits+misses)
system.cpu.dcache.LoadLockedReq_accesses::total           38                       # number of LoadLockedReq accesses(hits+misses)
system.cpu.dcache.StoreCondReq_hits::.cpu.data           38                       # number of StoreCondReq hits
system.cpu.dcache.StoreCondReq_hits::total           38                       # number of StoreCondReq hits
system.cpu.dcache.StoreCondReq_accesses::.cpu.data           38                       # number of StoreCondReq accesses(hits+misses)
system.cpu.dcache.StoreCondReq_accesses::total           38                       # number of StoreCondReq accesses(hits+misses)
system.cpu.dcache.power_state.pwrStateResidencyTicks::UNDEFINED 115096642228                       # Cumulative time (in ticks) in various power states
system.cpu.dcache.tags.tagsinuse          1010.641778                       # Cycle average of tags in use
system.cpu.dcache.tags.total_refs            52022510                       # Total number of references to valid blocks.
system.cpu.dcache.tags.sampled_refs            781170                       # Sample count of references to valid blocks.
system.cpu.dcache.tags.avg_refs             66.595632                       # Average number of references to valid blocks.
system.cpu.dcache.tags.warmup_cycle            192096                       # Cycle when the warmup percentage was hit.
system.cpu.dcache.tags.occ_blocks::.cpu.data  1010.641778                       # Average occupied blocks per requestor
system.cpu.dcache.tags.occ_percent::.cpu.data     0.986955                       # Average percentage of cache occupancy
system.cpu.dcache.tags.occ_percent::total     0.986955                       # Average percentage of cache occupancy
system.cpu.dcache.tags.occ_task_id_blocks::1024         1024                       # Occupied blocks per task id
system.cpu.dcache.tags.age_task_id_blocks_1024::0           64                       # Occupied blocks per task id
system.cpu.dcache.tags.age_task_id_blocks_1024::1          255                       # Occupied blocks per task id
system.cpu.dcache.tags.age_task_id_blocks_1024::2          683                       # Occupied blocks per task id
system.cpu.dcache.tags.age_task_id_blocks_1024::3           22                       # Occupied blocks per task id
system.cpu.dcache.tags.occ_task_id_percent::1024            1                       # Percentage of cache occupancy per task id
system.cpu.dcache.tags.tag_accesses          52864258                       # Number of tag accesses
system.cpu.dcache.tags.data_accesses         52864258                       # Number of data accesses
system.cpu.dcache.tags.power_state.pwrStateResidencyTicks::UNDEFINED 115096642228                       # Cumulative time (in ticks) in various power states
system.cpu.dtb.instHits                             0                       # ITB inst hits
system.cpu.dtb.instMisses                           0                       # ITB inst misses
system.cpu.dtb.readHits                             0                       # DTB read hits
system.cpu.dtb.readMisses                           0                       # DTB read misses
system.cpu.dtb.writeHits                            0                       # DTB write hits
system.cpu.dtb.writeMisses                          0                       # DTB write misses
system.cpu.dtb.inserts                              0                       # Number of times an entry is inserted into the TLB
system.cpu.dtb.flushTlb                             0                       # Number of times complete TLB was flushed
system.cpu.dtb.flushTlbMva                          0                       # Number of times TLB was flushed by MVA
system.cpu.dtb.flushTlbMvaAsid                      0                       # Number of times TLB was flushed by MVA & ASID
system.cpu.dtb.flushTlbAsid                         0                       # Number of times TLB was flushed by ASID
system.cpu.dtb.flushedEntries                       0                       # Number of entries that have been flushed from TLB
system.cpu.dtb.alignFaults                          0                       # Number of TLB faults due to alignment restrictions
system.cpu.dtb.prefetchFaults                       0                       # Number of TLB faults due to prefetch
system.cpu.dtb.domainFaults                         0                       # Number of TLB faults due to domain restrictions
system.cpu.dtb.permsFaults                          0                       # Number of TLB faults due to permissions restrictions
system.cpu.dtb.readAccesses                         0                       # DTB read accesses
system.cpu.dtb.writeAccesses                        0                       # DTB write accesses
system.cpu.dtb.instAccesses                         0                       # ITB inst accesses
system.cpu.dtb.hits                                 0                       # Total TLB (inst and data) hits
system.cpu.dtb.misses                               0                       # Total TLB (inst and data) misses
system.cpu.dtb.accesses                             0                       # Total TLB (inst and data) accesses
system.cpu.dtb.stage2_mmu.stage2_tlb.instHits            0                       # ITB inst hits
system.cpu.dtb.stage2_mmu.stage2_tlb.instMisses            0                       # ITB inst misses
system.cpu.dtb.stage2_mmu.stage2_tlb.readHits            0                       # DTB read hits
system.cpu.dtb.stage2_mmu.stage2_tlb.readMisses            0                       # DTB read misses
system.cpu.dtb.stage2_mmu.stage2_tlb.writeHits            0                       # DTB write hits
system.cpu.dtb.stage2_mmu.stage2_tlb.writeMisses            0                       # DTB write misses
system.cpu.dtb.stage2_mmu.stage2_tlb.inserts            0                       # Number of times an entry is inserted into the TLB
system.cpu.dtb.stage2_mmu.stage2_tlb.flushTlb            0                       # Number of times complete TLB was flushed
system.cpu.dtb.stage2_mmu.stage2_tlb.flushTlbMva            0                       # Number of times TLB was flushed by MVA
system.cpu.dtb.stage2_mmu.stage2_tlb.flushTlbMvaAsid            0                       # Number of times TLB was flushed by MVA & ASID
system.cpu.dtb.stage2_mmu.stage2_tlb.flushTlbAsid            0                       # Number of times TLB was flushed by ASID
system.cpu.dtb.stage2_mmu.stage2_tlb.flushedEntries            0                       # Number of entries that have been flushed from TLB
system.cpu.dtb.stage2_mmu.stage2_tlb.alignFaults            0                       # Number of TLB faults due to alignment restrictions
system.cpu.dtb.stage2_mmu.stage2_tlb.prefetchFaults            0                       # Number of TLB faults due to prefetch
system.cpu.dtb.stage2_mmu.stage2_tlb.domainFaults            0                       # Number of TLB faults due to domain restrictions
system.cpu.dtb.stage2_mmu.stage2_tlb.permsFaults            0                       # Number of TLB faults due to permissions restrictions
system.cpu.dtb.stage2_mmu.stage2_tlb.readAccesses            0                       # DTB read accesses
system.cpu.dtb.stage2_mmu.stage2_tlb.writeAccesses            0                       # DTB write accesses
system.cpu.dtb.stage2_mmu.stage2_tlb.instAccesses            0                       # ITB inst accesses
system.cpu.dtb.stage2_mmu.stage2_tlb.hits            0                       # Total TLB (inst and data) hits
system.cpu.dtb.stage2_mmu.stage2_tlb.misses            0                       # Total TLB (inst and data) misses
system.cpu.dtb.stage2_mmu.stage2_tlb.accesses            0                       # Total TLB (inst and data) accesses
system.cpu.dtb.stage2_mmu.stage2_tlb.walker.walks            0                       # Table walker walks requested
system.cpu.dtb.stage2_mmu.stage2_tlb.walker.requestOrigin_Requested::Data            0                       # Table walker requests started/completed, data/inst
system.cpu.dtb.stage2_mmu.stage2_tlb.walker.requestOrigin_Requested::Inst            0                       # Table walker requests started/completed, data/inst
system.cpu.dtb.stage2_mmu.stage2_tlb.walker.requestOrigin_Requested::total            0                       # Table walker requests started/completed, data/inst
system.cpu.dtb.stage2_mmu.stage2_tlb.walker.requestOrigin_Completed::Data            0                       # Table walker requests started/completed, data/inst
system.cpu.dtb.stage2_mmu.stage2_tlb.walker.requestOrigin_Completed::Inst            0                       # Table walker requests started/completed, data/inst
system.cpu.dtb.stage2_mmu.stage2_tlb.walker.requestOrigin_Completed::total            0                       # Table walker requests started/completed, data/inst
system.cpu.dtb.stage2_mmu.stage2_tlb.walker.requestOrigin::total            0                       # Table walker requests started/completed, data/inst
system.cpu.dtb.stage2_mmu.stage2_tlb.walker.power_state.pwrStateResidencyTicks::UNDEFINED 115096642228                       # Cumulative time (in ticks) in various power states
system.cpu.dtb.walker.walks                         0                       # Table walker walks requested
system.cpu.dtb.walker.requestOrigin_Requested::Data            0                       # Table walker requests started/completed, data/inst
system.cpu.dtb.walker.requestOrigin_Requested::Inst            0                       # Table walker requests started/completed, data/inst
system.cpu.dtb.walker.requestOrigin_Requested::total            0                       # Table walker requests started/completed, data/inst
system.cpu.dtb.walker.requestOrigin_Completed::Data            0                       # Table walker requests started/completed, data/inst
system.cpu.dtb.walker.requestOrigin_Completed::Inst            0                       # Table walker requests started/completed, data/inst
system.cpu.dtb.walker.requestOrigin_Completed::total            0                       # Table walker requests started/completed, data/inst
system.cpu.dtb.walker.requestOrigin::total            0                       # Table walker requests started/completed, data/inst
system.cpu.dtb.walker.power_state.pwrStateResidencyTicks::UNDEFINED 115096642228                       # Cumulative time (in ticks) in various power states
system.cpu.fetch2.intInstructions            42685933                       # Number of integer instructions successfully decoded
system.cpu.fetch2.fpInstructions                    0                       # Number of floating point instructions successfully decoded
system.cpu.fetch2.vecInstructions                   0                       # Number of SIMD instructions successfully decoded
system.cpu.fetch2.loadInstructions           43475187                       # Number of memory load instructions successfully decoded
system.cpu.fetch2.storeInstructions          11024942                       # Number of memory store instructions successfully decoded
system.cpu.fetch2.amoInstructions                   0                       # Number of memory atomic instructions successfully decoded
system.cpu.icache.demand_hits::.cpu.inst     10278226                       # number of demand (read+write) hits
system.cpu.icache.demand_hits::total         10278226                       # number of demand (read+write) hits
system.cpu.icache.overall_hits::.cpu.inst     10278226                       # number of overall hits
system.cpu.icache.overall_hits::total        10278226                       # number of overall hits
system.cpu.icache.demand_misses::.cpu.inst          760                       # number of demand (read+write) misses
system.cpu.icache.demand_misses::total            760                       # number of demand (read+write) misses
system.cpu.icache.overall_misses::.cpu.inst          760                       # number of overall misses
system.cpu.icache.overall_misses::total           760                       # number of overall misses
system.cpu.icache.demand_miss_latency::.cpu.inst     60986478                       # number of demand (read+write) miss cycles
system.cpu.icache.demand_miss_latency::total     60986478                       # number of demand (read+write) miss cycles
system.cpu.icache.overall_miss_latency::.cpu.inst     60986478                       # number of overall miss cycles
system.cpu.icache.overall_miss_latency::total     60986478                       # number of overall miss cycles
system.cpu.icache.demand_accesses::.cpu.inst     10278986                       # number of demand (read+write) accesses
system.cpu.icache.demand_accesses::total     10278986                       # number of demand (read+write) accesses
system.cpu.icache.overall_accesses::.cpu.inst     10278986                       # number of overall (read+write) accesses
system.cpu.icache.overall_accesses::total     10278986                       # number of overall (read+write) accesses
system.cpu.icache.demand_miss_rate::.cpu.inst     0.000074                       # miss rate for demand accesses
system.cpu.icache.demand_miss_rate::total     0.000074                       # miss rate for demand accesses
system.cpu.icache.overall_miss_rate::.cpu.inst     0.000074                       # miss rate for overall accesses
system.cpu.icache.overall_miss_rate::total     0.000074                       # miss rate for overall accesses
system.cpu.icache.demand_avg_miss_latency::.cpu.inst 80245.365789                       # average overall miss latency
system.cpu.icache.demand_avg_miss_latency::total 80245.365789                       # average overall miss latency
system.cpu.icache.overall_avg_miss_latency::.cpu.inst 80245.365789                       # average overall miss latency
system.cpu.icache.overall_avg_miss_latency::total 80245.365789                       # average overall miss latency
system.cpu.icache.blocked_cycles::no_mshrs            0                       # number of cycles access was blocked
system.cpu.icache.blocked_cycles::no_targets            0                       # number of cycles access was blocked
system.cpu.icache.blocked::no_mshrs                 0                       # number of cycles access was blocked
system.cpu.icache.blocked::no_targets               0                       # number of cycles access was blocked
system.cpu.icache.avg_blocked_cycles::no_mshrs          nan                       # average number of cycles each access was blocked
system.cpu.icache.avg_blocked_cycles::no_targets          nan                       # average number of cycles each access was blocked
system.cpu.icache.writebacks::.writebacks          245                       # number of writebacks
system.cpu.icache.writebacks::total               245                       # number of writebacks
system.cpu.icache.demand_mshr_misses::.cpu.inst          760                       # number of demand (read+write) MSHR misses
system.cpu.icache.demand_mshr_misses::total          760                       # number of demand (read+write) MSHR misses
system.cpu.icache.overall_mshr_misses::.cpu.inst          760                       # number of overall MSHR misses
system.cpu.icache.overall_mshr_misses::total          760                       # number of overall MSHR misses
system.cpu.icache.demand_mshr_miss_latency::.cpu.inst     59972638                       # number of demand (read+write) MSHR miss cycles
system.cpu.icache.demand_mshr_miss_latency::total     59972638                       # number of demand (read+write) MSHR miss cycles
system.cpu.icache.overall_mshr_miss_latency::.cpu.inst     59972638                       # number of overall MSHR miss cycles
system.cpu.icache.overall_mshr_miss_latency::total     59972638                       # number of overall MSHR miss cycles
system.cpu.icache.demand_mshr_miss_rate::.cpu.inst     0.000074                       # mshr miss rate for demand accesses
system.cpu.icache.demand_mshr_miss_rate::total     0.000074                       # mshr miss rate for demand accesses
system.cpu.icache.overall_mshr_miss_rate::.cpu.inst     0.000074                       # mshr miss rate for overall accesses
system.cpu.icache.overall_mshr_miss_rate::total     0.000074                       # mshr miss rate for overall accesses
system.cpu.icache.demand_avg_mshr_miss_latency::.cpu.inst 78911.365789                       # average overall mshr miss latency
system.cpu.icache.demand_avg_mshr_miss_latency::total 78911.365789                       # average overall mshr miss latency
system.cpu.icache.overall_avg_mshr_miss_latency::.cpu.inst 78911.365789                       # average overall mshr miss latency
system.cpu.icache.overall_avg_mshr_miss_latency::total 78911.365789                       # average overall mshr miss latency
system.cpu.icache.replacements                    245                       # number of replacements
system.cpu.icache.ReadReq_hits::.cpu.inst     10278226                       # number of ReadReq hits
system.cpu.icache.ReadReq_hits::total        10278226                       # number of ReadReq hits
system.cpu.icache.ReadReq_misses::.cpu.inst          760                       # number of ReadReq misses
system.cpu.icache.ReadReq_misses::total           760                       # number of ReadReq misses
system.cpu.icache.ReadReq_miss_latency::.cpu.inst     60986478                       # number of ReadReq miss cycles
system.cpu.icache.ReadReq_miss_latency::total     60986478                       # number of ReadReq miss cycles
system.cpu.icache.ReadReq_accesses::.cpu.inst     10278986                       # number of ReadReq accesses(hits+misses)
system.cpu.icache.ReadReq_accesses::total     10278986                       # number of ReadReq accesses(hits+misses)
system.cpu.icache.ReadReq_miss_rate::.cpu.inst     0.000074                       # miss rate for ReadReq accesses
system.cpu.icache.ReadReq_miss_rate::total     0.000074                       # miss rate for ReadReq accesses
system.cpu.icache.ReadReq_avg_miss_latency::.cpu.inst 80245.365789                       # average ReadReq miss latency
system.cpu.icache.ReadReq_avg_miss_latency::total 80245.365789                       # average ReadReq miss latency
system.cpu.icache.ReadReq_mshr_misses::.cpu.inst          760                       # number of ReadReq MSHR misses
system.cpu.icache.ReadReq_mshr_misses::total          760                       # number of ReadReq MSHR misses
system.cpu.icache.ReadReq_mshr_miss_latency::.cpu.inst     59972638                       # number of ReadReq MSHR miss cycles
system.cpu.icache.ReadReq_mshr_miss_latency::total     59972638                       # number of ReadReq MSHR miss cycles
system.cpu.icache.ReadReq_mshr_miss_rate::.cpu.inst     0.000074                       # mshr miss rate for ReadReq accesses
system.cpu.icache.ReadReq_mshr_miss_rate::total     0.000074                       # mshr miss rate for ReadReq accesses
system.cpu.icache.ReadReq_avg_mshr_miss_latency::.cpu.inst 78911.365789                       # average ReadReq mshr miss latency
system.cpu.icache.ReadReq_avg_mshr_miss_latency::total 78911.365789                       # average ReadReq mshr miss latency
system.cpu.icache.power_state.pwrStateResidencyTicks::UNDEFINED 115096642228                       # Cumulative time (in ticks) in various power states
system.cpu.icache.tags.tagsinuse           420.090068                       # Cycle average of tags in use
system.cpu.icache.tags.total_refs            10278986                       # Total number of references to valid blocks.
system.cpu.icache.tags.sampled_refs               760                       # Sample count of references to valid blocks.
system.cpu.icache.tags.avg_refs          13524.981579                       # Average number of references to valid blocks.
system.cpu.icache.tags.warmup_cycle             94047                       # Cycle when the warmup percentage was hit.
system.cpu.icache.tags.occ_blocks::.cpu.inst   420.090068                       # Average occupied blocks per requestor
system.cpu.icache.tags.occ_percent::.cpu.inst     0.410244                       # Average percentage of cache occupancy
system.cpu.icache.tags.occ_percent::total     0.410244                       # Average percentage of cache occupancy
system.cpu.icache.tags.occ_task_id_blocks::1024          515                       # Occupied blocks per task id
system.cpu.icache.tags.age_task_id_blocks_1024::3          107                       # Occupied blocks per task id
system.cpu.icache.tags.age_task_id_blocks_1024::4          408                       # Occupied blocks per task id
system.cpu.icache.tags.occ_task_id_percent::1024     0.502930                       # Percentage of cache occupancy per task id
system.cpu.icache.tags.tag_accesses          10279746                       # Number of tag accesses
system.cpu.icache.tags.data_accesses         10279746                       # Number of data accesses
system.cpu.icache.tags.power_state.pwrStateResidencyTicks::UNDEFINED 115096642228                       # Cumulative time (in ticks) in various power states
system.cpu.itb.instHits                             0                       # ITB inst hits
system.cpu.itb.instMisses                           0                       # ITB inst misses
system.cpu.itb.readHits                             0                       # DTB read hits
system.cpu.itb.readMisses                           0                       # DTB read misses
system.cpu.itb.writeHits                            0                       # DTB write hits
system.cpu.itb.writeMisses                          0                       # DTB write misses
system.cpu.itb.inserts                              0                       # Number of times an entry is inserted into the TLB
system.cpu.itb.flushTlb                             0                       # Number of times complete TLB was flushed
system.cpu.itb.flushTlbMva                          0                       # Number of times TLB was flushed by MVA
system.cpu.itb.flushTlbMvaAsid                      0                       # Number of times TLB was flushed by MVA & ASID
system.cpu.itb.flushTlbAsid                         0                       # Number of times TLB was flushed by ASID
system.cpu.itb.flushedEntries                       0                       # Number of entries that have been flushed from TLB
system.cpu.itb.alignFaults                          0                       # Number of TLB faults due to alignment restrictions
system.cpu.itb.prefetchFaults                       0                       # Number of TLB faults due to prefetch
system.cpu.itb.domainFaults                         0                       # Number of TLB faults due to domain restrictions
system.cpu.itb.permsFaults                          0                       # Number of TLB faults due to permissions restrictions
system.cpu.itb.readAccesses                         0                       # DTB read accesses
system.cpu.itb.writeAccesses                        0                       # DTB write accesses
system.cpu.itb.instAccesses                         0                       # ITB inst accesses
system.cpu.itb.hits                                 0                       # Total TLB (inst and data) hits
system.cpu.itb.misses                               0                       # Total TLB (inst and data) misses
system.cpu.itb.accesses                             0                       # Total TLB (inst and data) accesses
system.cpu.itb.stage2_mmu.stage2_tlb.instHits            0                       # ITB inst hits
system.cpu.itb.stage2_mmu.stage2_tlb.instMisses            0                       # ITB inst misses
system.cpu.itb.stage2_mmu.stage2_tlb.readHits            0                       # DTB read hits
system.cpu.itb.stage2_mmu.stage2_tlb.readMisses            0                       # DTB read misses
system.cpu.itb.stage2_mmu.stage2_tlb.writeHits            0                       # DTB write hits
system.cpu.itb.stage2_mmu.stage2_tlb.writeMisses            0                       # DTB write misses
system.cpu.itb.stage2_mmu.stage2_tlb.inserts            0                       # Number of times an entry is inserted into the TLB
system.cpu.itb.stage2_mmu.stage2_tlb.flushTlb            0                       # Number of times complete TLB was flushed
system.cpu.itb.stage2_mmu.stage2_tlb.flushTlbMva            0                       # Number of times TLB was flushed by MVA
system.cpu.itb.stage2_mmu.stage2_tlb.flushTlbMvaAsid            0                       # Number of times TLB was flushed by MVA & ASID
system.cpu.itb.stage2_mmu.stage2_tlb.flushTlbAsid            0                       # Number of times TLB was flushed by ASID
system.cpu.itb.stage2_mmu.stage2_tlb.flushedEntries            0                       # Number of entries that have been flushed from TLB
system.cpu.itb.stage2_mmu.stage2_tlb.alignFaults            0                       # Number of TLB faults due to alignment restrictions
system.cpu.itb.stage2_mmu.stage2_tlb.prefetchFaults            0                       # Number of TLB faults due to prefetch
system.cpu.itb.stage2_mmu.stage2_tlb.domainFaults            0                       # Number of TLB faults due to domain restrictions
system.cpu.itb.stage2_mmu.stage2_tlb.permsFaults            0                       # Number of TLB faults due to permissions restrictions
system.cpu.itb.stage2_mmu.stage2_tlb.readAccesses            0                       # DTB read accesses
system.cpu.itb.stage2_mmu.stage2_tlb.writeAccesses            0                       # DTB write accesses
system.cpu.itb.stage2_mmu.stage2_tlb.instAccesses            0                       # ITB inst accesses
system.cpu.itb.stage2_mmu.stage2_tlb.hits            0                       # Total TLB (inst and data) hits
system.cpu.itb.stage2_mmu.stage2_tlb.misses            0                       # Total TLB (inst and data) misses
system.cpu.itb.stage2_mmu.stage2_tlb.accesses            0                       # Total TLB (inst and data) accesses
system.cpu.itb.stage2_mmu.stage2_tlb.walker.walks            0                       # Table walker walks requested
system.cpu.itb.stage2_mmu.stage2_tlb.walker.requestOrigin_Requested::Data            0                       # Table walker requests started/completed, data/inst
system.cpu.itb.stage2_mmu.stage2_tlb.walker.requestOrigin_Requested::Inst            0                       # Table walker requests started/completed, data/inst
system.cpu.itb.stage2_mmu.stage2_tlb.walker.requestOrigin_Requested::total            0                       # Table walker requests started/completed, data/inst
system.cpu.itb.stage2_mmu.stage2_tlb.walker.requestOrigin_Completed::Data            0                       # Table walker requests started/completed, data/inst
system.cpu.itb.stage2_mmu.stage2_tlb.walker.requestOrigin_Completed::Inst            0                       # Table walker requests started/completed, data/inst
system.cpu.itb.stage2_mmu.stage2_tlb.walker.requestOrigin_Completed::total            0                       # Table walker requests started/completed, data/inst
system.cpu.itb.stage2_mmu.stage2_tlb.walker.requestOrigin::total            0                       # Table walker requests started/completed, data/inst
system.cpu.itb.stage2_mmu.stage2_tlb.walker.power_state.pwrStateResidencyTicks::UNDEFINED 115096642228                       # Cumulative time (in ticks) in various power states
system.cpu.itb.walker.walks                         0                       # Table walker walks requested
system.cpu.itb.walker.requestOrigin_Requested::Data            0                       # Table walker requests started/completed, data/inst
system.cpu.itb.walker.requestOrigin_Requested::Inst            0                       # Table walker requests started/completed, data/inst
system.cpu.itb.walker.requestOrigin_Requested::total            0                       # Table walker requests started/completed, data/inst
system.cpu.itb.walker.requestOrigin_Completed::Data            0                       # Table walker requests started/completed, data/inst
system.cpu.itb.walker.requestOrigin_Completed::Inst            0                       # Table walker requests started/completed, data/inst
system.cpu.itb.walker.requestOrigin_Completed::total            0                       # Table walker requests started/completed, data/inst
system.cpu.itb.walker.requestOrigin::total            0                       # Table walker requests started/completed, data/inst
system.cpu.itb.walker.power_state.pwrStateResidencyTicks::UNDEFINED 115096642228                       # Cumulative time (in ticks) in various power states
system.cpu.power_state.pwrStateResidencyTicks::ON 115096642228                       # Cumulative time (in ticks) in various power states
system.cpu.thread_0.numInsts                100000001                       # Number of Instructions committed
system.cpu.thread_0.numOps                  100196356                       # Number of Ops committed
system.cpu.thread_0.numMemRefs                      0                       # Number of Memory References
system.cpu_clk_domain.clock                       667                       # Clock period in ticks
system.cpu_voltage_domain.voltage                   1                       # Voltage in Volts
system.l2.demand_hits::.cpu.inst                   93                       # number of demand (read+write) hits
system.l2.demand_hits::.cpu.data               494516                       # number of demand (read+write) hits
system.l2.demand_hits::total                   494609                       # number of demand (read+write) hits
system.l2.overall_hits::.cpu.inst                  93                       # number of overall hits
system.l2.overall_hits::.cpu.data              494516                       # number of overall hits
system.l2.overall_hits::total                  494609                       # number of overall hits
system.l2.demand_misses::.cpu.inst                667                       # number of demand (read+write) misses
system.l2.demand_misses::.cpu.data             286654                       # number of demand (read+write) misses
system.l2.demand_misses::total                 287321                       # number of demand (read+write) misses
system.l2.overall_misses::.cpu.inst               667                       # number of overall misses
system.l2.overall_misses::.cpu.data            286654                       # number of overall misses
system.l2.overall_misses::total                287321                       # number of overall misses
system.l2.demand_miss_latency::.cpu.inst     57122547                       # number of demand (read+write) miss cycles
system.l2.demand_miss_latency::.cpu.data  27093442618                       # number of demand (read+write) miss cycles
system.l2.demand_miss_latency::total      27150565165                       # number of demand (read+write) miss cycles
system.l2.overall_miss_latency::.cpu.inst     57122547                       # number of overall miss cycles
system.l2.overall_miss_latency::.cpu.data  27093442618                       # number of overall miss cycles
system.l2.overall_miss_latency::total     27150565165                       # number of overall miss cycles
system.l2.demand_accesses::.cpu.inst              760                       # number of demand (read+write) accesses
system.l2.demand_accesses::.cpu.data           781170                       # number of demand (read+write) accesses
system.l2.demand_accesses::total               781930                       # number of demand (read+write) accesses
system.l2.overall_accesses::.cpu.inst             760                       # number of overall (read+write) accesses
system.l2.overall_accesses::.cpu.data          781170                       # number of overall (read+write) accesses
system.l2.overall_accesses::total              781930                       # number of overall (read+write) accesses
system.l2.demand_miss_rate::.cpu.inst        0.877632                       # miss rate for demand accesses
system.l2.demand_miss_rate::.cpu.data        0.366955                       # miss rate for demand accesses
system.l2.demand_miss_rate::total            0.367451                       # miss rate for demand accesses
system.l2.overall_miss_rate::.cpu.inst       0.877632                       # miss rate for overall accesses
system.l2.overall_miss_rate::.cpu.data       0.366955                       # miss rate for overall accesses
system.l2.overall_miss_rate::total           0.367451                       # miss rate for overall accesses
system.l2.demand_avg_miss_latency::.cpu.inst        85641                       # average overall miss latency
system.l2.demand_avg_miss_latency::.cpu.data 94516.185429                       # average overall miss latency
system.l2.demand_avg_miss_latency::total 94495.582171                       # average overall miss latency
system.l2.overall_avg_miss_latency::.cpu.inst        85641                       # average overall miss latency
system.l2.overall_avg_miss_latency::.cpu.data 94516.185429                       # average overall miss latency
system.l2.overall_avg_miss_latency::total 94495.582171                       # average overall miss latency
system.l2.blocked_cycles::no_mshrs                  0                       # number of cycles access was blocked
system.l2.blocked_cycles::no_targets                0                       # number of cycles access was blocked
system.l2.blocked::no_mshrs                         0                       # number of cycles access was blocked
system.l2.blocked::no_targets                       0                       # number of cycles access was blocked
system.l2.avg_blocked_cycles::no_mshrs            nan                       # average number of cycles each access was blocked
system.l2.avg_blocked_cycles::no_targets          nan                       # average number of cycles each access was blocked
system.l2.writebacks::.writebacks              199647                       # number of writebacks
system.l2.writebacks::total                    199647                       # number of writebacks
system.l2.demand_mshr_hits::.cpu.data               5                       # number of demand (read+write) MSHR hits
system.l2.demand_mshr_hits::total                   5                       # number of demand (read+write) MSHR hits
system.l2.overall_mshr_hits::.cpu.data              5                       # number of overall MSHR hits
system.l2.overall_mshr_hits::total                  5                       # number of overall MSHR hits
system.l2.demand_mshr_misses::.cpu.inst           667                       # number of demand (read+write) MSHR misses
system.l2.demand_mshr_misses::.cpu.data        286649                       # number of demand (read+write) MSHR misses
system.l2.demand_mshr_misses::total            287316                       # number of demand (read+write) MSHR misses
system.l2.overall_mshr_misses::.cpu.inst          667                       # number of overall MSHR misses
system.l2.overall_mshr_misses::.cpu.data       286649                       # number of overall MSHR misses
system.l2.overall_mshr_misses::total           287316                       # number of overall MSHR misses
system.l2.demand_mshr_miss_latency::.cpu.inst     48021573                       # number of demand (read+write) MSHR miss cycles
system.l2.demand_mshr_miss_latency::.cpu.data  23185903812                       # number of demand (read+write) MSHR miss cycles
system.l2.demand_mshr_miss_latency::total  23233925385                       # number of demand (read+write) MSHR miss cycles
system.l2.overall_mshr_miss_latency::.cpu.inst     48021573                       # number of overall MSHR miss cycles
system.l2.overall_mshr_miss_latency::.cpu.data  23185903812                       # number of overall MSHR miss cycles
system.l2.overall_mshr_miss_latency::total  23233925385                       # number of overall MSHR miss cycles
system.l2.demand_mshr_miss_rate::.cpu.inst     0.877632                       # mshr miss rate for demand accesses
system.l2.demand_mshr_miss_rate::.cpu.data     0.366948                       # mshr miss rate for demand accesses
system.l2.demand_mshr_miss_rate::total       0.367445                       # mshr miss rate for demand accesses
system.l2.overall_mshr_miss_rate::.cpu.inst     0.877632                       # mshr miss rate for overall accesses
system.l2.overall_mshr_miss_rate::.cpu.data     0.366948                       # mshr miss rate for overall accesses
system.l2.overall_mshr_miss_rate::total      0.367445                       # mshr miss rate for overall accesses
system.l2.demand_avg_mshr_miss_latency::.cpu.inst 71996.361319                       # average overall mshr miss latency
system.l2.demand_avg_mshr_miss_latency::.cpu.data 80886.044647                       # average overall mshr miss latency
system.l2.demand_avg_mshr_miss_latency::total 80865.407374                       # average overall mshr miss latency
system.l2.overall_avg_mshr_miss_latency::.cpu.inst 71996.361319                       # average overall mshr miss latency
system.l2.overall_avg_mshr_miss_latency::.cpu.data 80886.044647                       # average overall mshr miss latency
system.l2.overall_avg_mshr_miss_latency::total 80865.407374                       # average overall mshr miss latency
system.l2.replacements                         288132                       # number of replacements
system.l2.WritebackDirty_hits::.writebacks       679873                       # number of WritebackDirty hits
system.l2.WritebackDirty_hits::total           679873                       # number of WritebackDirty hits
system.l2.WritebackDirty_accesses::.writebacks       679873                       # number of WritebackDirty accesses(hits+misses)
system.l2.WritebackDirty_accesses::total       679873                       # number of WritebackDirty accesses(hits+misses)
system.l2.WritebackClean_hits::.writebacks          232                       # number of WritebackClean hits
system.l2.WritebackClean_hits::total              232                       # number of WritebackClean hits
system.l2.WritebackClean_accesses::.writebacks          232                       # number of WritebackClean accesses(hits+misses)
system.l2.WritebackClean_accesses::total          232                       # number of WritebackClean accesses(hits+misses)
system.l2.CleanEvict_mshr_misses::.writebacks         4663                       # number of CleanEvict MSHR misses
system.l2.CleanEvict_mshr_misses::total          4663                       # number of CleanEvict MSHR misses
system.l2.CleanEvict_mshr_miss_rate::.writebacks          inf                       # mshr miss rate for CleanEvict accesses
system.l2.CleanEvict_mshr_miss_rate::total          inf                       # mshr miss rate for CleanEvict accesses
system.l2.ReadExReq_hits::.cpu.data            145437                       # number of ReadExReq hits
system.l2.ReadExReq_hits::total                145437                       # number of ReadExReq hits
system.l2.ReadExReq_misses::.cpu.data          176823                       # number of ReadExReq misses
system.l2.ReadExReq_misses::total              176823                       # number of ReadExReq misses
system.l2.ReadExReq_miss_latency::.cpu.data  17107067926                       # number of ReadExReq miss cycles
system.l2.ReadExReq_miss_latency::total   17107067926                       # number of ReadExReq miss cycles
system.l2.ReadExReq_accesses::.cpu.data        322260                       # number of ReadExReq accesses(hits+misses)
system.l2.ReadExReq_accesses::total            322260                       # number of ReadExReq accesses(hits+misses)
system.l2.ReadExReq_miss_rate::.cpu.data     0.548697                       # miss rate for ReadExReq accesses
system.l2.ReadExReq_miss_rate::total         0.548697                       # miss rate for ReadExReq accesses
system.l2.ReadExReq_avg_miss_latency::.cpu.data 96746.848125                       # average ReadExReq miss latency
system.l2.ReadExReq_avg_miss_latency::total 96746.848125                       # average ReadExReq miss latency
system.l2.ReadExReq_mshr_misses::.cpu.data       176823                       # number of ReadExReq MSHR misses
system.l2.ReadExReq_mshr_misses::total         176823                       # number of ReadExReq MSHR misses
system.l2.ReadExReq_mshr_miss_latency::.cpu.data  14695170149                       # number of ReadExReq MSHR miss cycles
system.l2.ReadExReq_mshr_miss_latency::total  14695170149                       # number of ReadExReq MSHR miss cycles
system.l2.ReadExReq_mshr_miss_rate::.cpu.data     0.548697                       # mshr miss rate for ReadExReq accesses
system.l2.ReadExReq_mshr_miss_rate::total     0.548697                       # mshr miss rate for ReadExReq accesses
system.l2.ReadExReq_avg_mshr_miss_latency::.cpu.data 83106.666831                       # average ReadExReq mshr miss latency
system.l2.ReadExReq_avg_mshr_miss_latency::total 83106.666831                       # average ReadExReq mshr miss latency
system.l2.ReadCleanReq_hits::.cpu.inst             93                       # number of ReadCleanReq hits
system.l2.ReadCleanReq_hits::total                 93                       # number of ReadCleanReq hits
system.l2.ReadCleanReq_misses::.cpu.inst          667                       # number of ReadCleanReq misses
system.l2.ReadCleanReq_misses::total              667                       # number of ReadCleanReq misses
system.l2.ReadCleanReq_miss_latency::.cpu.inst     57122547                       # number of ReadCleanReq miss cycles
system.l2.ReadCleanReq_miss_latency::total     57122547                       # number of ReadCleanReq miss cycles
system.l2.ReadCleanReq_accesses::.cpu.inst          760                       # number of ReadCleanReq accesses(hits+misses)
system.l2.ReadCleanReq_accesses::total            760                       # number of ReadCleanReq accesses(hits+misses)
system.l2.ReadCleanReq_miss_rate::.cpu.inst     0.877632                       # miss rate for ReadCleanReq accesses
system.l2.ReadCleanReq_miss_rate::total      0.877632                       # miss rate for ReadCleanReq accesses
system.l2.ReadCleanReq_avg_miss_latency::.cpu.inst        85641                       # average ReadCleanReq miss latency
system.l2.ReadCleanReq_avg_miss_latency::total        85641                       # average ReadCleanReq miss latency
system.l2.ReadCleanReq_mshr_misses::.cpu.inst          667                       # number of ReadCleanReq MSHR misses
system.l2.ReadCleanReq_mshr_misses::total          667                       # number of ReadCleanReq MSHR misses
system.l2.ReadCleanReq_mshr_miss_latency::.cpu.inst     48021573                       # number of ReadCleanReq MSHR miss cycles
system.l2.ReadCleanReq_mshr_miss_latency::total     48021573                       # number of ReadCleanReq MSHR miss cycles
system.l2.ReadCleanReq_mshr_miss_rate::.cpu.inst     0.877632                       # mshr miss rate for ReadCleanReq accesses
system.l2.ReadCleanReq_mshr_miss_rate::total     0.877632                       # mshr miss rate for ReadCleanReq accesses
system.l2.ReadCleanReq_avg_mshr_miss_latency::.cpu.inst 71996.361319                       # average ReadCleanReq mshr miss latency
system.l2.ReadCleanReq_avg_mshr_miss_latency::total 71996.361319                       # average ReadCleanReq mshr miss latency
system.l2.ReadSharedReq_hits::.cpu.data        349079                       # number of ReadSharedReq hits
system.l2.ReadSharedReq_hits::total            349079                       # number of ReadSharedReq hits
system.l2.ReadSharedReq_misses::.cpu.data       109831                       # number of ReadSharedReq misses
system.l2.ReadSharedReq_misses::total          109831                       # number of ReadSharedReq misses
system.l2.ReadSharedReq_miss_latency::.cpu.data   9986374692                       # number of ReadSharedReq miss cycles
system.l2.ReadSharedReq_miss_latency::total   9986374692                       # number of ReadSharedReq miss cycles
system.l2.ReadSharedReq_accesses::.cpu.data       458910                       # number of ReadSharedReq accesses(hits+misses)
system.l2.ReadSharedReq_accesses::total        458910                       # number of ReadSharedReq accesses(hits+misses)
system.l2.ReadSharedReq_miss_rate::.cpu.data     0.239330                       # miss rate for ReadSharedReq accesses
system.l2.ReadSharedReq_miss_rate::total     0.239330                       # miss rate for ReadSharedReq accesses
system.l2.ReadSharedReq_avg_miss_latency::.cpu.data 90924.918211                       # average ReadSharedReq miss latency
system.l2.ReadSharedReq_avg_miss_latency::total 90924.918211                       # average ReadSharedReq miss latency
system.l2.ReadSharedReq_mshr_hits::.cpu.data            5                       # number of ReadSharedReq MSHR hits
system.l2.ReadSharedReq_mshr_hits::total            5                       # number of ReadSharedReq MSHR hits
system.l2.ReadSharedReq_mshr_misses::.cpu.data       109826                       # number of ReadSharedReq MSHR misses
system.l2.ReadSharedReq_mshr_misses::total       109826                       # number of ReadSharedReq MSHR misses
system.l2.ReadSharedReq_mshr_miss_latency::.cpu.data   8490733663                       # number of ReadSharedReq MSHR miss cycles
system.l2.ReadSharedReq_mshr_miss_latency::total   8490733663                       # number of ReadSharedReq MSHR miss cycles
system.l2.ReadSharedReq_mshr_miss_rate::.cpu.data     0.239319                       # mshr miss rate for ReadSharedReq accesses
system.l2.ReadSharedReq_mshr_miss_rate::total     0.239319                       # mshr miss rate for ReadSharedReq accesses
system.l2.ReadSharedReq_avg_mshr_miss_latency::.cpu.data 77310.779442                       # average ReadSharedReq mshr miss latency
system.l2.ReadSharedReq_avg_mshr_miss_latency::total 77310.779442                       # average ReadSharedReq mshr miss latency
system.l2.power_state.pwrStateResidencyTicks::UNDEFINED 115096642228                       # Cumulative time (in ticks) in various power states
system.l2.tags.tagsinuse                  8062.459939                       # Cycle average of tags in use
system.l2.tags.total_refs                     1556995                       # Total number of references to valid blocks.
system.l2.tags.sampled_refs                    296324                       # Sample count of references to valid blocks.
system.l2.tags.avg_refs                      5.254367                       # Average number of references to valid blocks.
system.l2.tags.warmup_cycle                     80000                       # Cycle when the warmup percentage was hit.
system.l2.tags.occ_blocks::.writebacks     174.321683                       # Average occupied blocks per requestor
system.l2.tags.occ_blocks::.cpu.inst        16.963940                       # Average occupied blocks per requestor
system.l2.tags.occ_blocks::.cpu.data      7871.174316                       # Average occupied blocks per requestor
system.l2.tags.occ_percent::.writebacks      0.021280                       # Average percentage of cache occupancy
system.l2.tags.occ_percent::.cpu.inst        0.002071                       # Average percentage of cache occupancy
system.l2.tags.occ_percent::.cpu.data        0.960837                       # Average percentage of cache occupancy
system.l2.tags.occ_percent::total            0.984187                       # Average percentage of cache occupancy
system.l2.tags.occ_task_id_blocks::1024          8192                       # Occupied blocks per task id
system.l2.tags.age_task_id_blocks_1024::0            1                       # Occupied blocks per task id
system.l2.tags.age_task_id_blocks_1024::1          290                       # Occupied blocks per task id
system.l2.tags.age_task_id_blocks_1024::2         2856                       # Occupied blocks per task id
system.l2.tags.age_task_id_blocks_1024::3         4861                       # Occupied blocks per task id
system.l2.tags.age_task_id_blocks_1024::4          184                       # Occupied blocks per task id
system.l2.tags.occ_task_id_percent::1024            1                       # Percentage of cache occupancy per task id
system.l2.tags.tag_accesses                   3419650                       # Number of tag accesses
system.l2.tags.data_accesses                  3419650                       # Number of data accesses
system.l2.tags.power_state.pwrStateResidencyTicks::UNDEFINED 115096642228                       # Cumulative time (in ticks) in various power states
system.mem_ctrls.avgPriority_.writebacks::samples    199618.00                       # Average QoS priority value for accepted requests
system.mem_ctrls.avgPriority_.cpu.inst::samples       667.00                       # Average QoS priority value for accepted requests
system.mem_ctrls.avgPriority_.cpu.data::samples    285694.00                       # Average QoS priority value for accepted requests
system.mem_ctrls.priorityMinLatency      0.000000018750                       # per QoS priority minimum request to response latency (s)
system.mem_ctrls.priorityMaxLatency      0.003894258640                       # per QoS priority maximum request to response latency (s)
system.mem_ctrls.numReadWriteTurnArounds        11779                       # Number of turnarounds from READ to WRITE
system.mem_ctrls.numWriteReadTurnArounds        11779                       # Number of turnarounds from WRITE to READ
system.mem_ctrls.numStayReadState              787644                       # Number of times bus staying in READ state
system.mem_ctrls.numStayWriteState             188079                       # Number of times bus staying in WRITE state
system.mem_ctrls.readReqs                      287316                       # Number of read requests accepted
system.mem_ctrls.writeReqs                     199647                       # Number of write requests accepted
system.mem_ctrls.readBursts                    287316                       # Number of controller read bursts, including those serviced by the write queue
system.mem_ctrls.writeBursts                   199647                       # Number of controller write bursts, including those merged in the write queue
system.mem_ctrls.servicedByWrQ                    955                       # Number of controller read bursts serviced by the write queue
system.mem_ctrls.mergedWrBursts                    29                       # Number of controller write bursts merged with an existing one
system.mem_ctrls.neitherReadNorWriteReqs            0                       # Number of requests that are neither read nor write
system.mem_ctrls.avgRdQLen                       1.08                       # Average read queue length when enqueuing
system.mem_ctrls.avgWrQLen                      24.67                       # Average write queue length when enqueuing
system.mem_ctrls.numRdRetry                         0                       # Number of times read queue was full causing retry
system.mem_ctrls.numWrRetry                         0                       # Number of times write queue was full causing retry
system.mem_ctrls.readPktSize::0                     0                       # Read request sizes (log2)
system.mem_ctrls.readPktSize::1                     0                       # Read request sizes (log2)
system.mem_ctrls.readPktSize::2                     0                       # Read request sizes (log2)
system.mem_ctrls.readPktSize::3                     0                       # Read request sizes (log2)
system.mem_ctrls.readPktSize::4                     0                       # Read request sizes (log2)
system.mem_ctrls.readPktSize::5                     0                       # Read request sizes (log2)
system.mem_ctrls.readPktSize::6                287316                       # Read request sizes (log2)
system.mem_ctrls.writePktSize::0                    0                       # Write request sizes (log2)
system.mem_ctrls.writePktSize::1                    0                       # Write request sizes (log2)
system.mem_ctrls.writePktSize::2                    0                       # Write request sizes (log2)
system.mem_ctrls.writePktSize::3                    0                       # Write request sizes (log2)
system.mem_ctrls.writePktSize::4                    0                       # Write request sizes (log2)
system.mem_ctrls.writePktSize::5                    0                       # Write request sizes (log2)
system.mem_ctrls.writePktSize::6               199647                       # Write request sizes (log2)
system.mem_ctrls.rdQLenPdf::0                  218234                       # What read queue length does an incoming req see
system.mem_ctrls.rdQLenPdf::1                   67176                       # What read queue length does an incoming req see
system.mem_ctrls.rdQLenPdf::2                     816                       # What read queue length does an incoming req see
system.mem_ctrls.rdQLenPdf::3                     134                       # What read queue length does an incoming req see
system.mem_ctrls.rdQLenPdf::4                       1                       # What read queue length does an incoming req see
system.mem_ctrls.rdQLenPdf::5                       0                       # What read queue length does an incoming req see
system.mem_ctrls.rdQLenPdf::6                       0                       # What read queue length does an incoming req see
system.mem_ctrls.rdQLenPdf::7                       0                       # What read queue length does an incoming req see
[...]
system.mem_ctrls.dram.bw_write::.writebacks    111014603                       # Write bandwidth from this memory (bytes/s)
system.mem_ctrls.dram.bw_write::total       111014603                       # Write bandwidth from this memory (bytes/s)
system.mem_ctrls.dram.bw_total::.writebacks    111014603                       # Total bandwidth to/from this memory (bytes/s)
system.mem_ctrls.dram.bw_total::.cpu.inst       370888                       # Total bandwidth to/from this memory (bytes/s)
system.mem_ctrls.dram.bw_total::.cpu.data    159392452                       # Total bandwidth to/from this memory (bytes/s)
system.mem_ctrls.dram.bw_total::total       270777943                       # Total bandwidth to/from this memory (bytes/s)
system.mem_ctrls.dram.readBursts               286361                       # Number of DRAM read bursts
system.mem_ctrls.dram.writeBursts              199588                       # Number of DRAM write bursts
system.mem_ctrls.dram.perBankRdBursts::0        17415                       # Per bank write bursts
system.mem_ctrls.dram.perBankRdBursts::1        17635                       # Per bank write bursts
system.mem_ctrls.dram.perBankRdBursts::2        17360                       # Per bank write bursts
system.mem_ctrls.dram.perBankRdBursts::3        17180                       # Per bank write bursts
system.mem_ctrls.dram.perBankRdBursts::4        18328                       # Per bank write bursts
system.mem_ctrls.dram.perBankRdBursts::5        17169                       # Per bank write bursts
system.mem_ctrls.dram.perBankRdBursts::6        18153                       # Per bank write bursts
system.mem_ctrls.dram.perBankRdBursts::7        18893                       # Per bank write bursts
system.mem_ctrls.dram.perBankRdBursts::8        19129                       # Per bank write bursts
system.mem_ctrls.dram.perBankRdBursts::9        17692                       # Per bank write bursts
system.mem_ctrls.dram.perBankRdBursts::10        16482                       # Per bank write bursts
system.mem_ctrls.dram.perBankRdBursts::11        18954                       # Per bank write bursts
system.mem_ctrls.dram.perBankRdBursts::12        17436                       # Per bank write bursts
system.mem_ctrls.dram.perBankRdBursts::13        18344                       # Per bank write bursts
system.mem_ctrls.dram.perBankRdBursts::14        18156                       # Per bank write bursts
system.mem_ctrls.dram.perBankRdBursts::15        18035                       # Per bank write bursts
system.mem_ctrls.dram.perBankWrBursts::0        11792                       # Per bank write bursts
system.mem_ctrls.dram.perBankWrBursts::1        12050                       # Per bank write bursts
system.mem_ctrls.dram.perBankWrBursts::2        11827                       # Per bank write bursts
system.mem_ctrls.dram.perBankWrBursts::3        11709                       # Per bank write bursts
system.mem_ctrls.dram.perBankWrBursts::4        12757                       # Per bank write bursts
system.mem_ctrls.dram.perBankWrBursts::5        11987                       # Per bank write bursts
system.mem_ctrls.dram.perBankWrBursts::6        12834                       # Per bank write bursts
system.mem_ctrls.dram.perBankWrBursts::7        13573                       # Per bank write bursts
system.mem_ctrls.dram.perBankWrBursts::8        13869                       # Per bank write bursts
system.mem_ctrls.dram.perBankWrBursts::9        12611                       # Per bank write bursts
system.mem_ctrls.dram.perBankWrBursts::10        11166                       # Per bank write bursts
system.mem_ctrls.dram.perBankWrBursts::11        13611                       # Per bank write bursts
system.mem_ctrls.dram.perBankWrBursts::12        11853                       # Per bank write bursts
system.mem_ctrls.dram.perBankWrBursts::13        12786                       # Per bank write bursts
system.mem_ctrls.dram.perBankWrBursts::14        12592                       # Per bank write bursts
system.mem_ctrls.dram.perBankWrBursts::15        12571                       # Per bank write bursts
system.mem_ctrls.dram.totQLat              4934561356                       # Total ticks spent queuing
system.mem_ctrls.dram.totBusLat            1431805000                       # Total ticks spent in databus transfers
system.mem_ctrls.dram.totMemAccLat        10303830106                       # Total ticks spent from burst creation until serviced by the DRAM
system.mem_ctrls.dram.avgQLat                17231.96                       # Average queueing delay per DRAM burst
system.mem_ctrls.dram.avgBusLat               5000.00                       # Average bus latency per DRAM burst
system.mem_ctrls.dram.avgMemAccLat           35981.96                       # Average memory access latency per DRAM burst
system.mem_ctrls.dram.readRowHits              150379                       # Number of row buffer hits during reads
system.mem_ctrls.dram.writeRowHits             102368                       # Number of row buffer hits during writes
system.mem_ctrls.dram.readRowHitRate            52.51                       # Row buffer hit rate for reads
system.mem_ctrls.dram.writeRowHitRate           51.29                       # Row buffer hit rate for writes
system.mem_ctrls.dram.bytesPerActivate::samples       233202                       # Bytes accessed per row activation
system.mem_ctrls.dram.bytesPerActivate::mean   133.363933                       # Bytes accessed per row activation
system.mem_ctrls.dram.bytesPerActivate::gmean    89.351458                       # Bytes accessed per row activation
system.mem_ctrls.dram.bytesPerActivate::stdev   192.426461                       # Bytes accessed per row activation
system.mem_ctrls.dram.bytesPerActivate::0-127       177547     76.13%     76.13% # Bytes accessed per row activation
system.mem_ctrls.dram.bytesPerActivate::128-255        30600     13.12%     89.26% # Bytes accessed per row activation
system.mem_ctrls.dram.bytesPerActivate::256-383         4480      1.92%     91.18% # Bytes accessed per row activation
system.mem_ctrls.dram.bytesPerActivate::384-511         3049      1.31%     92.48% # Bytes accessed per row activation
system.mem_ctrls.dram.bytesPerActivate::512-639         9100      3.90%     96.39% # Bytes accessed per row activation
system.mem_ctrls.dram.bytesPerActivate::640-767          624      0.27%     96.65% # Bytes accessed per row activation
system.mem_ctrls.dram.bytesPerActivate::768-895          535      0.23%     96.88% # Bytes accessed per row activation
system.mem_ctrls.dram.bytesPerActivate::896-1023          577      0.25%     97.13% # Bytes accessed per row activation
system.mem_ctrls.dram.bytesPerActivate::1024-1151         6690      2.87%    100.00% # Bytes accessed per row activation
system.mem_ctrls.dram.bytesPerActivate::total       233202                       # Bytes accessed per row activation
system.mem_ctrls.dram.bytesRead              18327104                       # Total number of bytes read from DRAM
system.mem_ctrls.dram.bytesWritten           12773632                       # Total number of bytes written to DRAM
system.mem_ctrls.dram.avgRdBW              159.232308                       # Average DRAM read bandwidth in MiBytes/s
system.mem_ctrls.dram.avgWrBW              110.981795                       # Average DRAM write bandwidth in MiBytes/s
system.mem_ctrls.dram.peakBW                 12800.00                       # Theoretical peak bandwidth in MiByte/s
system.mem_ctrls.dram.busUtil                    2.11                       # Data bus utilization in percentage
system.mem_ctrls.dram.busUtilRead                1.24                       # Data bus utilization in percentage for reads
system.mem_ctrls.dram.busUtilWrite               0.87                       # Data bus utilization in percentage for writes
system.mem_ctrls.dram.pageHitRate               52.01                       # Row buffer hit rate, read and write combined
system.mem_ctrls.dram.power_state.pwrStateResidencyTicks::UNDEFINED 115096642228                       # Cumulative time (in ticks) in various power states
system.mem_ctrls.dram.rank0.actEnergy       816951660                       # Energy for activate commands per rank (pJ)
system.mem_ctrls.dram.rank0.preEnergy       434220105                       # Energy for precharge commands per rank (pJ)
system.mem_ctrls.dram.rank0.readEnergy     1014829620                       # Energy for read commands per rank (pJ)
system.mem_ctrls.dram.rank0.writeEnergy     514321380                       # Energy for write commands per rank (pJ)
system.mem_ctrls.dram.rank0.refreshEnergy 9085608480.000002                       # Energy for refresh commands per rank (pJ)
system.mem_ctrls.dram.rank0.actBackEnergy  32271203220                       # Energy for active background per rank (pJ)
system.mem_ctrls.dram.rank0.preBackEnergy  17021360640                       # Energy for precharge background per rank (pJ)
system.mem_ctrls.dram.rank0.actPowerDownEnergy            0                       # Energy for active power-down per rank (pJ)
system.mem_ctrls.dram.rank0.prePowerDownEnergy            0                       # Energy for precharge power-down per rank (pJ)
system.mem_ctrls.dram.rank0.selfRefreshEnergy            0                       # Energy for self refresh per rank (pJ)
system.mem_ctrls.dram.rank0.totalEnergy   61158495105                       # Total energy per rank (pJ)
system.mem_ctrls.dram.rank0.averagePower   531.366458                       # Core power per rank (mW)
system.mem_ctrls.dram.rank0.totalIdleTime            0                       # Total Idle time Per DRAM Rank
system.mem_ctrls.dram.rank0.pwrStateTime::IDLE  43912999028                       # Time in different power states
system.mem_ctrls.dram.rank0.pwrStateTime::REF   3843320000                       # Time in different power states
system.mem_ctrls.dram.rank0.pwrStateTime::SREF            0                       # Time in different power states
system.mem_ctrls.dram.rank0.pwrStateTime::PRE_PDN            0                       # Time in different power states
system.mem_ctrls.dram.rank0.pwrStateTime::ACT  67340323200                       # Time in different power states
system.mem_ctrls.dram.rank0.pwrStateTime::ACT_PDN            0                       # Time in different power states
system.mem_ctrls.dram.rank1.actEnergy       848110620                       # Energy for activate commands per rank (pJ)
system.mem_ctrls.dram.rank1.preEnergy       450781485                       # Energy for precharge commands per rank (pJ)
system.mem_ctrls.dram.rank1.readEnergy     1029787920                       # Energy for read commands per rank (pJ)
system.mem_ctrls.dram.rank1.writeEnergy     527527980                       # Energy for write commands per rank (pJ)
system.mem_ctrls.dram.rank1.refreshEnergy 9085608480.000002                       # Energy for refresh commands per rank (pJ)
system.mem_ctrls.dram.rank1.actBackEnergy  31856098440                       # Energy for active background per rank (pJ)
system.mem_ctrls.dram.rank1.preBackEnergy  17370922560                       # Energy for precharge background per rank (pJ)
system.mem_ctrls.dram.rank1.actPowerDownEnergy            0                       # Energy for active power-down per rank (pJ)
system.mem_ctrls.dram.rank1.prePowerDownEnergy            0                       # Energy for precharge power-down per rank (pJ)
system.mem_ctrls.dram.rank1.selfRefreshEnergy            0                       # Energy for self refresh per rank (pJ)
system.mem_ctrls.dram.rank1.totalEnergy   61168837485                       # Total energy per rank (pJ)
system.mem_ctrls.dram.rank1.averagePower   531.456316                       # Core power per rank (mW)
system.mem_ctrls.dram.rank1.totalIdleTime            0                       # Total Idle time Per DRAM Rank
system.mem_ctrls.dram.rank1.pwrStateTime::IDLE  44826293109                       # Time in different power states
system.mem_ctrls.dram.rank1.pwrStateTime::REF   3843320000                       # Time in different power states
system.mem_ctrls.dram.rank1.pwrStateTime::SREF            0                       # Time in different power states
system.mem_ctrls.dram.rank1.pwrStateTime::PRE_PDN            0                       # Time in different power states
system.mem_ctrls.dram.rank1.pwrStateTime::ACT  66427029119                       # Time in different power states
system.mem_ctrls.dram.rank1.pwrStateTime::ACT_PDN            0                       # Time in different power states
system.mem_ctrls.power_state.pwrStateResidencyTicks::UNDEFINED 115096642228                       # Cumulative time (in ticks) in various power states
system.membus.trans_dist::ReadResp             110493                       # Transaction distribution
system.membus.trans_dist::WritebackDirty       199647                       # Transaction distribution
system.membus.trans_dist::CleanEvict            78938                       # Transaction distribution
system.membus.trans_dist::ReadExReq            176823                       # Transaction distribution
system.membus.trans_dist::ReadExResp           176823                       # Transaction distribution
system.membus.trans_dist::ReadSharedReq        110493                       # Transaction distribution
system.membus.pkt_count_system.l2.mem_side_port::system.mem_ctrls.port       853217                       # Packet count per connected requestor and responder (bytes)
system.membus.pkt_count::total                 853217                       # Packet count per connected requestor and responder (bytes)
system.membus.pkt_size_system.l2.mem_side_port::system.mem_ctrls.port     31165632                       # Cumulative packet size per connected requestor and responder (bytes)
system.membus.pkt_size::total                31165632                       # Cumulative packet size per connected requestor and responder (bytes)
system.membus.snoops                                0                       # Total snoops (count)
system.membus.snoopTraffic                          0                       # Total snoop traffic (bytes)
system.membus.snoop_fanout::samples            287316                       # Request fanout histogram
system.membus.snoop_fanout::mean                    0                       # Request fanout histogram
system.membus.snoop_fanout::stdev                   0                       # Request fanout histogram
system.membus.snoop_fanout::underflows              0      0.00%      0.00% # Request fanout histogram
system.membus.snoop_fanout::0                  287316    100.00%    100.00% # Request fanout histogram
system.membus.snoop_fanout::1                       0      0.00%    100.00% # Request fanout histogram
system.membus.snoop_fanout::overflows               0      0.00%    100.00% # Request fanout histogram
system.membus.snoop_fanout::min_value               0                       # Request fanout histogram
system.membus.snoop_fanout::max_value               0                       # Request fanout histogram
system.membus.snoop_fanout::total              287316                       # Request fanout histogram
system.membus.power_state.pwrStateResidencyTicks::UNDEFINED 115096642228                       # Cumulative time (in ticks) in various power states
system.membus.reqLayer0.occupancy          1590891194                       # Layer occupancy (ticks)
system.membus.reqLayer0.utilization               1.4                       # Layer utilization (%)
system.membus.respLayer1.occupancy         1563527832                       # Layer occupancy (ticks)
system.membus.respLayer1.utilization              1.4                       # Layer utilization (%)
system.tol2bus.trans_dist::ReadResp            459670                       # Transaction distribution
system.tol2bus.trans_dist::WritebackDirty       879520                       # Transaction distribution
system.tol2bus.trans_dist::WritebackClean          245                       # Transaction distribution
system.tol2bus.trans_dist::CleanEvict          188758                       # Transaction distribution
system.tol2bus.trans_dist::ReadExReq           322260                       # Transaction distribution
system.tol2bus.trans_dist::ReadExResp          322260                       # Transaction distribution
system.tol2bus.trans_dist::ReadCleanReq           760                       # Transaction distribution
system.tol2bus.trans_dist::ReadSharedReq       458910                       # Transaction distribution
system.tol2bus.pkt_count_system.cpu.icache.mem_side_port::system.l2.cpu_side_port         1765                       # Packet count per connected requestor and responder (bytes)
system.tol2bus.pkt_count_system.cpu.dcache.mem_side_port::system.l2.cpu_side_port      2342486                       # Packet count per connected requestor and responder (bytes)
system.tol2bus.pkt_count::total               2344251                       # Packet count per connected requestor and responder (bytes)
system.tol2bus.pkt_size_system.cpu.icache.mem_side_port::system.l2.cpu_side_port        64320                       # Cumulative packet size per connected requestor and responder (bytes)
system.tol2bus.pkt_size_system.cpu.dcache.mem_side_port::system.l2.cpu_side_port     93506752                       # Cumulative packet size per connected requestor and responder (bytes)
system.tol2bus.pkt_size::total               93571072                       # Cumulative packet size per connected requestor and responder (bytes)
system.tol2bus.snoops                          288132                       # Total snoops (count)
system.tol2bus.snoopTraffic                  12777408                       # Total snoop traffic (bytes)
system.tol2bus.snoop_fanout::samples          1070062                       # Request fanout histogram
system.tol2bus.snoop_fanout::mean            0.013912                       # Request fanout histogram
system.tol2bus.snoop_fanout::stdev           0.117263                       # Request fanout histogram
system.tol2bus.snoop_fanout::underflows             0      0.00%      0.00% # Request fanout histogram
system.tol2bus.snoop_fanout::0                1055192     98.61%     98.61% # Request fanout histogram
system.tol2bus.snoop_fanout::1                  14853      1.39%    100.00% # Request fanout histogram
system.tol2bus.snoop_fanout::2                     17      0.00%    100.00% # Request fanout histogram
system.tol2bus.snoop_fanout::overflows              0      0.00%    100.00% # Request fanout histogram
system.tol2bus.snoop_fanout::min_value              0                       # Request fanout histogram
system.tol2bus.snoop_fanout::max_value              2                       # Request fanout histogram
system.tol2bus.snoop_fanout::total            1070062                       # Request fanout histogram
system.tol2bus.power_state.pwrStateResidencyTicks::UNDEFINED 115096642228                       # Cumulative time (in ticks) in various power states
system.tol2bus.reqLayer0.occupancy         1949345519                       # Layer occupancy (ticks)
system.tol2bus.reqLayer0.utilization              1.7                       # Layer utilization (%)
system.tol2bus.respLayer0.occupancy           1520760                       # Layer occupancy (ticks)
system.tol2bus.respLayer0.utilization             0.0                       # Layer utilization (%)
system.tol2bus.respLayer1.occupancy        1563124500                       # Layer occupancy (ticks)
system.tol2bus.respLayer1.utilization             1.4                       # Layer utilization (%)
system.voltage_domain.voltage                       1                       # Voltage in Volts

---------- End Simulation Statistics   ----------
