
---------- Begin Simulation Statistics ----------
final_tick                                80018492585                       # Number of ticks from beginning of simulation (restored from checkpoints and never reset)
host_inst_rate                                 194779                       # Simulator instruction rate (inst/s)
host_mem_usage                                 681268                       # Number of bytes of host memory used
host_op_rate                                   213133                       # Simulator op (including micro ops) rate (op/s)
host_seconds                                   513.40                       # Real time elapsed on the host
host_tick_rate                              155858807                       # Simulator tick rate (ticks/s)
sim_freq                                 1000000000000                       # Frequency of simulated ticks
sim_insts                                   100000001                       # Number of instructions simulated
sim_ops                                     109423149                       # Number of ops (including micro ops) simulated
sim_seconds                                  0.080018                       # Number of seconds simulated
sim_ticks                                 80018492585                       # Number of ticks simulated
system.cpu.committedInsts                   100000001                       # Number of instructions committed
system.cpu.committedOps                     109423149                       # Number of ops (including micro ops) committed
system.cpu.cpi                               1.199678                       # CPI: cycles per instruction
system.cpu.discardedOps                        460087                       # Number of ops (including micro ops) which were discarded before commit
system.cpu.idleCycles                         8822947                       # Total number of cycles that the object has spent stopped
system.cpu.ipc                               0.833557                       # IPC: instructions per cycle
system.cpu.numCycles                        119967755                       # number of cpu cycles simulated
system.cpu.numFetchSuspends                         0                       # Number of times Execute suspended instruction fetching
system.cpu.numWorkItemsCompleted                    0                       # number of work items this cpu completed
system.cpu.numWorkItemsStarted                      0                       # number of work items this cpu started
system.cpu.op_class_0::No_OpClass                   0      0.00%      0.00% # Class of committed instruction
system.cpu.op_class_0::IntAlu                72978377     66.69%     66.69% # Class of committed instruction
system.cpu.op_class_0::IntMult                 567877      0.52%     67.21% # Class of committed instruction
system.cpu.op_class_0::IntDiv                       0      0.00%     67.21% # Class of committed instruction
system.cpu.op_class_0::FloatAdd                     0      0.00%     67.21% # Class of committed instruction
system.cpu.op_class_0::FloatCmp                     0      0.00%     67.21% # Class of committed instruction
system.cpu.op_class_0::FloatCvt                     0      0.00%     67.21% # Class of committed instruction
system.cpu.op_class_0::FloatMult                    0      0.00%     67.21% # Class of committed instruction
system.cpu.op_class_0::FloatMultAcc                 0      0.00%     67.21% # Class of committed instruction
system.cpu.op_class_0::FloatDiv                     0      0.00%     67.21% # Class of committed instruction
system.cpu.op_class_0::FloatMisc                    0      0.00%     67.21% # Class of committed instruction
system.cpu.op_class_0::FloatSqrt                    0      0.00%     67.21% # Class of committed instruction
system.cpu.op_class_0::SimdAdd                 241132      0.22%     67.43% # Class of committed instruction
system.cpu.op_class_0::SimdAddAcc                   0      0.00%     67.43% # Class of committed instruction
system.cpu.op_class_0::SimdAlu                 154494      0.14%     67.57% # Class of committed instruction
system.cpu.op_class_0::SimdCmp                 120566      0.11%     67.68% # Class of committed instruction
system.cpu.op_class_0::SimdCvt                      0      0.00%     67.68% # Class of committed instruction
system.cpu.op_class_0::SimdMisc                 44506      0.04%     67.73% # Class of committed instruction
system.cpu.op_class_0::SimdMult                     0      0.00%     67.73% # Class of committed instruction
system.cpu.op_class_0::SimdMultAcc                  0      0.00%     67.73% # Class of committed instruction
system.cpu.op_class_0::SimdShift                    0      0.00%     67.73% # Class of committed instruction
system.cpu.op_class_0::SimdShiftAcc                 0      0.00%     67.73% # Class of committed instruction
system.cpu.op_class_0::SimdDiv                      0      0.00%     67.73% # Class of committed instruction
system.cpu.op_class_0::SimdSqrt                     0      0.00%     67.73% # Class of committed instruction
system.cpu.op_class_0::SimdFloatAdd                 0      0.00%     67.73% # Class of committed instruction
system.cpu.op_class_0::SimdFloatAlu                 0      0.00%     67.73% # Class of committed instruction
system.cpu.op_class_0::SimdFloatCmp                 0      0.00%     67.73% # Class of committed instruction
system.cpu.op_class_0::SimdFloatCvt                 0      0.00%     67.73% # Class of committed instruction
system.cpu.op_class_0::SimdFloatDiv                 0      0.00%     67.73% # Class of committed instruction
system.cpu.op_class_0::SimdFloatMisc           166276      0.15%     67.88% # Class of committed instruction
system.cpu.op_class_0::SimdFloatMult                0      0.00%     67.88% # Class of committed instruction
system.cpu.op_class_0::SimdFloatMultAcc             0      0.00%     67.88% # Class of committed instruction
system.cpu.op_class_0::SimdFloatSqrt                0      0.00%     67.88% # Class of committed instruction
system.cpu.op_class_0::SimdReduceAdd                0      0.00%     67.88% # Class of committed instruction
system.cpu.op_class_0::SimdReduceAlu                0      0.00%     67.88% # Class of committed instruction
system.cpu.op_class_0::SimdReduceCmp                0      0.00%     67.88% # Class of committed instruction
system.cpu.op_class_0::SimdFloatReduceAdd            0      0.00%     67.88% # Class of committed instruction
system.cpu.op_class_0::SimdFloatReduceCmp            0      0.00%     67.88% # Class of committed instruction
system.cpu.op_class_0::SimdAes                      0      0.00%     67.88% # Class of committed instruction
system.cpu.op_class_0::SimdAesMix                   0      0.00%     67.88% # Class of committed instruction
system.cpu.op_class_0::SimdSha1Hash                 0      0.00%     67.88% # Class of committed instruction
system.cpu.op_class_0::SimdSha1Hash2                0      0.00%     67.88% # Class of committed instruction
system.cpu.op_class_0::SimdSha256Hash               0      0.00%     67.88% # Class of committed instruction
system.cpu.op_class_0::SimdSha256Hash2              0      0.00%     67.88% # Class of committed instruction
system.cpu.op_class_0::SimdShaSigma2                0      0.00%     67.88% # Class of committed instruction
system.cpu.op_class_0::SimdShaSigma3                0      0.00%     67.88% # Class of committed instruction
system.cpu.op_class_0::SimdPredAlu                  0      0.00%     67.88% # Class of committed instruction
system.cpu.op_class_0::MemRead               20628137     18.85%     86.73% # Class of committed instruction
system.cpu.op_class_0::MemWrite              14521784     13.27%    100.00% # Class of committed instruction
system.cpu.op_class_0::FloatMemRead                 0      0.00%    100.00% # Class of committed instruction
system.cpu.op_class_0::FloatMemWrite                0      0.00%    100.00% # Class of committed instruction
system.cpu.op_class_0::IprAccess                    0      0.00%    100.00% # Class of committed instruction
system.cpu.op_class_0::InstPrefetch                 0      0.00%    100.00% # Class of committed instruction
system.cpu.op_class_0::total                109423149                       # Class of committed instruction
system.cpu.tickCycles                       111144808                       # Number of cycles that the object actually ticked
system.cpu.workload.numSyscalls                    87                       # Number of system calls
system.membus.snoop_filter.hit_multi_requests            0                       # Number of requests hitting in the snoop filter with multiple (>1) holders of the requested data.
system.membus.snoop_filter.hit_multi_snoops            0                       # Number of snoops hitting in the snoop filter with multiple (>1) holders of the requested data.
system.membus.snoop_filter.hit_single_requests         6617                       # Number of requests hitting in the snoop filter with a single holder of the requested data.
system.membus.snoop_filter.hit_single_snoops            0                       # Number of snoops hitting in the snoop filter with a single holder of the requested data.
system.membus.snoop_filter.tot_requests         46499                       # Total number of requests made to the snoop filter.
system.membus.snoop_filter.tot_snoops               0                       # Total number of snoops made to the snoop filter.
system.tol2bus.snoop_filter.hit_multi_requests          463                       # Number of requests hitting in the snoop filter with multiple (>1) holders of the requested data.
system.tol2bus.snoop_filter.hit_multi_snoops            0                       # Number of snoops hitting in the snoop filter with multiple (>1) holders of the requested data.
system.tol2bus.snoop_filter.hit_single_requests       349258                       # Number of requests hitting in the snoop filter with a single holder of the requested data.
system.tol2bus.snoop_filter.hit_single_snoops          525                       # Number of snoops hitting in the snoop filter with a single holder of the requested data.
system.tol2bus.snoop_filter.tot_requests       701061                       # Total number of requests made to the snoop filter.
system.tol2bus.snoop_filter.tot_snoops            525                       # Total number of snoops made to the snoop filter.
system.clk_domain.clock                          1000                       # Clock period in ticks
system.cpu.branchPred.lookups                20399035                       # Number of BP lookups
system.cpu.branchPred.condPredicted          16340725                       # Number of conditional branches predicted
system.cpu.branchPred.condIncorrect             80949                       # Number of conditional branches incorrect
system.cpu.branchPred.BTBLookups              8731951                       # Number of BTB lookups
system.cpu.branchPred.BTBHits                 8730613                       # Number of BTB hits
system.cpu.branchPred.BTBHitPct             99.984677                       # BTB Hit Percentage
system.cpu.branchPred.RASUsed                 1049343                       # Number of times the RAS was used to get a target.
system.cpu.branchPred.RASIncorrect                325                       # Number of incorrect RAS predictions.
system.cpu.branchPred.indirectLookups          433640                       # Number of indirect predictor lookups.
system.cpu.branchPred.indirectHits             299766                       # Number of indirect target hits.
system.cpu.branchPred.indirectMisses           133874                       # Number of indirect misses.
system.cpu.branchPred.indirectMispredicted         1034                       # Number of mispredicted indirect branches.
system.cpu.dcache.demand_hits::.cpu.data     35536540                       # number of demand (read+write) hits
system.cpu.dcache.demand_hits::total         35536540                       # number of demand (read+write) hits
system.cpu.dcache.overall_hits::.cpu.data     35539835                       # number of overall hits
system.cpu.dcache.overall_hits::total        35539835                       # number of overall hits
system.cpu.dcache.demand_misses::.cpu.data       117965                       # number of demand (read+write) misses
system.cpu.dcache.demand_misses::total         117965                       # number of demand (read+write) misses
system.cpu.dcache.overall_misses::.cpu.data       118013                       # number of overall misses
system.cpu.dcache.overall_misses::total        118013                       # number of overall misses
system.cpu.dcache.demand_miss_latency::.cpu.data   5739430948                       # number of demand (read+write) miss cycles
system.cpu.dcache.demand_miss_latency::total   5739430948                       # number of demand (read+write) miss cycles
system.cpu.dcache.overall_miss_latency::.cpu.data   5739430948                       # number of overall miss cycles
system.cpu.dcache.overall_miss_latency::total   5739430948                       # number of overall miss cycles
system.cpu.dcache.demand_accesses::.cpu.data     35654505                       # number of demand (read+write) accesses
system.cpu.dcache.demand_accesses::total     35654505                       # number of demand (read+write) accesses
system.cpu.dcache.overall_accesses::.cpu.data     35657848                       # number of overall (read+write) accesses
system.cpu.dcache.overall_accesses::total     35657848                       # number of overall (read+write) accesses
system.cpu.dcache.demand_miss_rate::.cpu.data     0.003309                       # miss rate for demand accesses
system.cpu.dcache.demand_miss_rate::total     0.003309                       # miss rate for demand accesses
system.cpu.dcache.overall_miss_rate::.cpu.data     0.003310                       # miss rate for overall accesses
system.cpu.dcache.overall_miss_rate::total     0.003310                       # miss rate for overall accesses
system.cpu.dcache.demand_avg_miss_latency::.cpu.data 48653.676497                       # average overall miss latency
system.cpu.dcache.demand_avg_miss_latency::total 48653.676497                       # average overall miss latency
system.cpu.dcache.overall_avg_miss_latency::.cpu.data 48633.887351                       # average overall miss latency
system.cpu.dcache.overall_avg_miss_latency::total 48633.887351                       # average overall miss latency
system.cpu.dcache.blocked_cycles::no_mshrs            0                       # number of cycles access was blocked
system.cpu.dcache.blocked_cycles::no_targets            0                       # number of cycles access was blocked
system.cpu.dcache.blocked::no_mshrs                 0                       # number of cycles access was blocked
system.cpu.dcache.blocked::no_targets               0                       # number of cycles access was blocked
system.cpu.dcache.avg_blocked_cycles::no_mshrs          nan                       # average number of cycles each access was blocked
system.cpu.dcache.avg_blocked_cycles::no_targets          nan                       # average number of cycles each access was blocked
system.cpu.dcache.writebacks::.writebacks        70380                       # number of writebacks
system.cpu.dcache.writebacks::total             70380                       # number of writebacks
system.cpu.dcache.demand_mshr_hits::.cpu.data        21789                       # number of demand (read+write) MSHR hits
system.cpu.dcache.demand_mshr_hits::total        21789                       # number of demand (read+write) MSHR hits
system.cpu.dcache.overall_mshr_hits::.cpu.data        21789                       # number of overall MSHR hits
system.cpu.dcache.overall_mshr_hits::total        21789                       # number of overall MSHR hits
system.cpu.dcache.demand_mshr_misses::.cpu.data        96176                       # number of demand (read+write) MSHR misses
system.cpu.dcache.demand_mshr_misses::total        96176                       # number of demand (read+write) MSHR misses
system.cpu.dcache.overall_mshr_misses::.cpu.data        96220                       # number of overall MSHR misses
system.cpu.dcache.overall_mshr_misses::total        96220                       # number of overall MSHR misses
system.cpu.dcache.demand_mshr_miss_latency::.cpu.data   4405847823                       # number of demand (read+write) MSHR miss cycles
system.cpu.dcache.demand_mshr_miss_latency::total   4405847823                       # number of demand (read+write) MSHR miss cycles
system.cpu.dcache.overall_mshr_miss_latency::.cpu.data   4407395263                       # number of overall MSHR miss cycles
system.cpu.dcache.overall_mshr_miss_latency::total   4407395263                       # number of overall MSHR miss cycles
system.cpu.dcache.demand_mshr_miss_rate::.cpu.data     0.002697                       # mshr miss rate for demand accesses
system.cpu.dcache.demand_mshr_miss_rate::total     0.002697                       # mshr miss rate for demand accesses
system.cpu.dcache.overall_mshr_miss_rate::.cpu.data     0.002698                       # mshr miss rate for overall accesses
system.cpu.dcache.overall_mshr_miss_rate::total     0.002698                       # mshr miss rate for overall accesses
system.cpu.dcache.demand_avg_mshr_miss_latency::.cpu.data 45810.262675                       # average overall mshr miss latency
system.cpu.dcache.demand_avg_mshr_miss_latency::total 45810.262675                       # average overall mshr miss latency
system.cpu.dcache.overall_avg_mshr_miss_latency::.cpu.data 45805.396622                       # average overall mshr miss latency
system.cpu.dcache.overall_avg_mshr_miss_latency::total 45805.396622                       # average overall mshr miss latency
system.cpu.dcache.replacements                  94176                       # number of replacements
system.cpu.dcache.ReadReq_hits::.cpu.data     21353654                       # number of ReadReq hits
system.cpu.dcache.ReadReq_hits::total        21353654                       # number of ReadReq hits
system.cpu.dcache.ReadReq_misses::.cpu.data        58885                       # number of ReadReq misses
system.cpu.dcache.ReadReq_misses::total         58885                       # number of ReadReq misses
system.cpu.dcache.ReadReq_miss_latency::.cpu.data   1089375749                       # number of ReadReq miss cycles
system.cpu.dcache.ReadReq_miss_latency::total   1089375749                       # number of ReadReq miss cycles
system.cpu.dcache.ReadReq_accesses::.cpu.data     21412539                       # number of ReadReq accesses(hits+misses)
system.cpu.dcache.ReadReq_accesses::total     21412539                       # number of ReadReq accesses(hits+misses)
system.cpu.dcache.ReadReq_miss_rate::.cpu.data     0.002750                       # miss rate for ReadReq accesses
system.cpu.dcache.ReadReq_miss_rate::total     0.002750                       # miss rate for ReadReq accesses
system.cpu.dcache.ReadReq_avg_miss_latency::.cpu.data 18500.055175                       # average ReadReq miss latency
system.cpu.dcache.ReadReq_avg_miss_latency::total 18500.055175                       # average ReadReq miss latency
system.cpu.dcache.ReadReq_mshr_hits::.cpu.data         3628                       # number of ReadReq MSHR hits
system.cpu.dcache.ReadReq_mshr_hits::total         3628                       # number of ReadReq MSHR hits
system.cpu.dcache.ReadReq_mshr_misses::.cpu.data        55257                       # number of ReadReq MSHR misses
system.cpu.dcache.ReadReq_mshr_misses::total        55257                       # number of ReadReq MSHR misses
system.cpu.dcache.ReadReq_mshr_miss_latency::.cpu.data    937987426                       # number of ReadReq MSHR miss cycles
system.cpu.dcache.ReadReq_mshr_miss_latency::total    937987426                       # number of ReadReq MSHR miss cycles
system.cpu.dcache.ReadReq_mshr_miss_rate::.cpu.data     0.002581                       # mshr miss rate for ReadReq accesses
system.cpu.dcache.ReadReq_mshr_miss_rate::total     0.002581                       # mshr miss rate for ReadReq accesses
system.cpu.dcache.ReadReq_avg_mshr_miss_latency::.cpu.data 16974.997304                       # average ReadReq mshr miss latency
system.cpu.dcache.ReadReq_avg_mshr_miss_latency::total 16974.997304                       # average ReadReq mshr miss latency
system.cpu.dcache.WriteReq_hits::.cpu.data     14182886                       # number of WriteReq hits
system.cpu.dcache.WriteReq_hits::total       14182886                       # number of WriteReq hits
system.cpu.dcache.WriteReq_misses::.cpu.data        59080                       # number of WriteReq misses
system.cpu.dcache.WriteReq_misses::total        59080                       # number of WriteReq misses
system.cpu.dcache.WriteReq_miss_latency::.cpu.data   4650055199                       # number of WriteReq miss cycles
system.cpu.dcache.WriteReq_miss_latency::total   4650055199                       # number of WriteReq miss cycles
system.cpu.dcache.WriteReq_accesses::.cpu.data     14241966                       # number of WriteReq accesses(hits+misses)
system.cpu.dcache.WriteReq_accesses::total     14241966                       # number of WriteReq accesses(hits+misses)
system.cpu.dcache.WriteReq_miss_rate::.cpu.data     0.004148                       # miss rate for WriteReq accesses
system.cpu.dcache.WriteReq_miss_rate::total     0.004148                       # miss rate for WriteReq accesses
system.cpu.dcache.WriteReq_avg_miss_latency::.cpu.data 78707.772495                       # average WriteReq miss latency
system.cpu.dcache.WriteReq_avg_miss_latency::total 78707.772495                       # average WriteReq miss latency
system.cpu.dcache.WriteReq_mshr_hits::.cpu.data        18161                       # number of WriteReq MSHR hits
system.cpu.dcache.WriteReq_mshr_hits::total        18161                       # number of WriteReq MSHR hits
system.cpu.dcache.WriteReq_mshr_misses::.cpu.data        40919                       # number of WriteReq MSHR misses
system.cpu.dcache.WriteReq_mshr_misses::total        40919                       # number of WriteReq MSHR misses
system.cpu.dcache.WriteReq_mshr_miss_latency::.cpu.data   3467860397                       # number of WriteReq MSHR miss cycles
system.cpu.dcache.WriteReq_mshr_miss_latency::total   3467860397                       # number of WriteReq MSHR miss cycles
system.cpu.dcache.WriteReq_mshr_miss_rate::.cpu.data     0.002873                       # mshr miss rate for WriteReq accesses
system.cpu.dcache.WriteReq_mshr_miss_rate::total     0.002873                       # mshr miss rate for WriteReq accesses
system.cpu.dcache.WriteReq_avg_mshr_miss_latency::.cpu.data 84749.392629                       # average WriteReq mshr miss latency
system.cpu.dcache.WriteReq_avg_mshr_miss_latency::total 84749.392629                       # average WriteReq mshr miss latency
system.cpu.dcache.SoftPFReq_hits::.cpu.data         3295                       # number of SoftPFReq hits
system.cpu.dcache.SoftPFReq_hits::total          3295                       # number of SoftPFReq hits
system.cpu.dcache.SoftPFReq_misses::.cpu.data           48                       # number of SoftPFReq misses
system.cpu.dcache.SoftPFReq_misses::total           48                       # number of SoftPFReq misses
system.cpu.dcache.SoftPFReq_accesses::.cpu.data         3343                       # number of SoftPFReq accesses(hits+misses)
system.cpu.dcache.SoftPFReq_accesses::total         3343                       # number of SoftPFReq accesses(hits+misses)
system.cpu.dcache.SoftPFReq_miss_rate::.cpu.data     0.014358                       # miss rate for SoftPFReq accesses
system.cpu.dcache.SoftPFReq_miss_rate::total     0.014358                       # miss rate for SoftPFReq accesses
system.cpu.dcache.SoftPFReq_mshr_misses::.cpu.data           44                       # number of SoftPFReq MSHR misses
system.cpu.dcache.SoftPFReq_mshr_misses::total           44                       # number of SoftPFReq MSHR misses
system.cpu.dcache.SoftPFReq_mshr_miss_latency::.cpu.data      1547440                       # number of SoftPFReq MSHR miss cycles
system.cpu.dcache.SoftPFReq_mshr_miss_latency::total      1547440                       # number of SoftPFReq MSHR miss cycles
system.cpu.dcache.SoftPFReq_mshr_miss_rate::.cpu.data     0.013162                       # mshr miss rate for SoftPFReq accesses
system.cpu.dcache.SoftPFReq_mshr_miss_rate::total     0.013162                       # mshr miss rate for SoftPFReq accesses
system.cpu.dcache.SoftPFReq_avg_mshr_miss_latency::.cpu.data 35169.090909                       # average SoftPFReq mshr miss latency
system.cpu.dcache.SoftPFReq_avg_mshr_miss_latency::total 35169.090909                       # average SoftPFReq mshr miss latency
system.cpu.dcache.LoadLockedReq_hits::.cpu.data        89006                       # number of LoadLockedReq hits
system.cpu.dcache.LoadLockedReq_hits::total        89006                       # number of LoadLockedReq hits
system.cpu.dcache.LoadLockedReq_misses::.cpu.data            4                       # number of LoadLockedReq misses
system.cpu.dcache.LoadLockedReq_misses::total            4                       # number of LoadLockedReq misses
system.cpu.dcache.LoadLockedReq_miss_latency::.cpu.data       144072                       # number of LoadLockedReq miss cycles
system.cpu.dcache.LoadLockedReq_miss_latency::total       144072                       # number of LoadLockedReq miss cycles
system.cpu.dcache.LoadLockedReq_accesses::.cpu.data        89010                       # number of LoadLockedReq accesses(hits+misses)
system.cpu.dcache.LoadLockedReq_accesses::total        89010                       # number of LoadLockedReq accesses(hits+misses)
system.cpu.dcache.LoadLockedReq_miss_rate::.cpu.data     0.000045                       # miss rate for LoadLockedReq accesses
system.cpu.dcache.LoadLockedReq_miss_rate::total     0.000045                       # miss rate for LoadLockedReq accesses
system.cpu.dcache.LoadLockedReq_avg_miss_latency::.cpu.data        36018                       # average LoadLockedReq miss latency
system.cpu.dcache.LoadLockedReq_avg_miss_latency::total        36018                       # average LoadLockedReq miss latency
system.cpu.dcache.LoadLockedReq_mshr_misses::.cpu.data            4                       # number of LoadLockedReq MSHR misses
system.cpu.dcache.LoadLockedReq_mshr_misses::total            4                       # number of LoadLockedReq MSHR misses
system.cpu.dcache.LoadLockedReq_mshr_miss_latency::.cpu.data       138736                       # number of LoadLockedReq MSHR miss cycles
system.cpu.dcache.LoadLockedReq_mshr_miss_latency::total       138736                       # number of LoadLockedReq MSHR miss cycles
system.cpu.dcache.LoadLockedReq_mshr_miss_rate::.cpu.data     0.000045                       # mshr miss rate for LoadLockedReq accesses
system.cpu.dcache.LoadLockedReq_mshr_miss_rate::total     0.000045                       # mshr miss rate for LoadLockedReq accesses
system.cpu.dcache.LoadLockedReq_avg_mshr_miss_latency::.cpu.data        34684                       # average LoadLockedReq mshr miss latency
system.cpu.dcache.LoadLockedReq_avg_mshr_miss_latency::total        34684                       # average LoadLockedReq mshr miss latency
system.cpu.dcache.StoreCondReq_hits::.cpu.data        89006                       # number of StoreCondReq hits
system.cpu.dcache.StoreCondReq_hits::total        89006                       # number of StoreCondReq hits
system.cpu.dcache.StoreCondReq_accesses::.cpu.data        89006                       # number of StoreCondReq accesses(hits+misses)
system.cpu.dcache.StoreCondReq_accesses::total        89006                       # number of StoreCondReq accesses(hits+misses)
system.cpu.dcache.power_state.pwrStateResidencyTicks::UNDEFINED  80018492585                       # Cumulative time (in ticks) in various power states
system.cpu.dcache.tags.tagsinuse          2034.395261                       # Cycle average of tags in use
system.cpu.dcache.tags.total_refs            35814071                       # Total number of references to valid blocks.
system.cpu.dcache.tags.sampled_refs             96224                       # Sample count of references to valid blocks.
system.cpu.dcache.tags.avg_refs            372.194785                       # Average number of references to valid blocks.
system.cpu.dcache.tags.warmup_cycle            192096                       # Cycle when the warmup percentage was hit.
system.cpu.dcache.tags.occ_blocks::.cpu.data  2034.395261                       # Average occupied blocks per requestor
system.cpu.dcache.tags.occ_percent::.cpu.data     0.993357                       # Average percentage of cache occupancy
system.cpu.dcache.tags.occ_percent::total     0.993357                       # Average percentage of cache occupancy
system.cpu.dcache.tags.occ_task_id_blocks::1024         2048                       # Occupied blocks per task id
system.cpu.dcache.tags.age_task_id_blocks_1024::0            4                       # Occupied blocks per task id
system.cpu.dcache.tags.age_task_id_blocks_1024::1           31                       # Occupied blocks per task id
system.cpu.dcache.tags.age_task_id_blocks_1024::2          369                       # Occupied blocks per task id
system.cpu.dcache.tags.age_task_id_blocks_1024::3         1644                       # Occupied blocks per task id
system.cpu.dcache.tags.occ_task_id_percent::1024            1                       # Percentage of cache occupancy per task id
system.cpu.dcache.tags.tag_accesses          35932088                       # Number of tag accesses
system.cpu.dcache.tags.data_accesses         35932088                       # Number of data accesses
system.cpu.dcache.tags.power_state.pwrStateResidencyTicks::UNDEFINED  80018492585                       # Cumulative time (in ticks) in various power states
system.cpu.dtb.instHits                             0                       # ITB inst hits
system.cpu.dtb.instMisses                           0                       # ITB inst misses
system.cpu.dtb.readHits                             0                       # DTB read hits
system.cpu.dtb.readMisses                           0                       # DTB read misses
system.cpu.dtb.writeHits                            0                       # DTB write hits
system.cpu.dtb.writeMisses                          0                       # DTB write misses
system.cpu.dtb.inserts                              0                       # Number of times an entry is inserted into the TLB
system.cpu.dtb.flushTlb                             0                       # Number of times complete TLB was flushed
system.cpu.dtb.flushTlbMva                          0                       # Number of times TLB was flushed by MVA
system.cpu.dtb.flushTlbMvaAsid                      0                       # Number of times TLB was flushed by MVA & ASID
system.cpu.dtb.flushTlbAsid                         0                       # Number of times TLB was flushed by ASID
system.cpu.dtb.flushedEntries                       0                       # Number of entries that have been flushed from TLB
system.cpu.dtb.alignFaults                          0                       # Number of TLB faults due to alignment restrictions
system.cpu.dtb.prefetchFaults                       0                       # Number of TLB faults due to prefetch
system.cpu.dtb.domainFaults                         0                       # Number of TLB faults due to domain restrictions
system.cpu.dtb.permsFaults                          0                       # Number of TLB faults due to permissions restrictions
system.cpu.dtb.readAccesses                         0                       # DTB read accesses
system.cpu.dtb.writeAccesses                        0                       # DTB write accesses
system.cpu.dtb.instAccesses                         0                       # ITB inst accesses
system.cpu.dtb.hits                                 0                       # Total TLB (inst and data) hits
system.cpu.dtb.misses                               0                       # Total TLB (inst and data) misses
system.cpu.dtb.accesses                             0                       # Total TLB (inst and data) accesses
system.cpu.dtb.stage2_mmu.stage2_tlb.instHits            0                       # ITB inst hits
system.cpu.dtb.stage2_mmu.stage2_tlb.instMisses            0                       # ITB inst misses
system.cpu.dtb.stage2_mmu.stage2_tlb.readHits            0                       # DTB read hits
system.cpu.dtb.stage2_mmu.stage2_tlb.readMisses            0                       # DTB read misses
system.cpu.dtb.stage2_mmu.stage2_tlb.writeHits            0                       # DTB write hits
system.cpu.dtb.stage2_mmu.stage2_tlb.writeMisses            0                       # DTB write misses
system.cpu.dtb.stage2_mmu.stage2_tlb.inserts            0                       # Number of times an entry is inserted into the TLB
system.cpu.dtb.stage2_mmu.stage2_tlb.flushTlb            0                       # Number of times complete TLB was flushed
system.cpu.dtb.stage2_mmu.stage2_tlb.flushTlbMva            0                       # Number of times TLB was flushed by MVA
system.cpu.dtb.stage2_mmu.stage2_tlb.flushTlbMvaAsid            0                       # Number of times TLB was flushed by MVA & ASID
system.cpu.dtb.stage2_mmu.stage2_tlb.flushTlbAsid            0                       # Number of times TLB was flushed by ASID
system.cpu.dtb.stage2_mmu.stage2_tlb.flushedEntries            0                       # Number of entries that have been flushed from TLB
system.cpu.dtb.stage2_mmu.stage2_tlb.alignFaults            0                       # Number of TLB faults due to alignment restrictions
system.cpu.dtb.stage2_mmu.stage2_tlb.prefetchFaults            0                       # Number of TLB faults due to prefetch
system.cpu.dtb.stage2_mmu.stage2_tlb.domainFaults            0                       # Number of TLB faults due to domain restrictions
system.cpu.dtb.stage2_mmu.stage2_tlb.permsFaults            0                       # Number of TLB faults due to permissions restrictions
system.cpu.dtb.stage2_mmu.stage2_tlb.readAccesses            0                       # DTB read accesses
system.cpu.dtb.stage2_mmu.stage2_tlb.writeAccesses            0                       # DTB write accesses
system.cpu.dtb.stage2_mmu.stage2_tlb.instAccesses            0                       # ITB inst accesses
system.cpu.dtb.stage2_mmu.stage2_tlb.hits            0                       # Total TLB (inst and data) hits
system.cpu.dtb.stage2_mmu.stage2_tlb.misses            0                       # Total TLB (inst and data) misses
system.cpu.dtb.stage2_mmu.stage2_tlb.accesses            0                       # Total TLB (inst and data) accesses
system.cpu.dtb.stage2_mmu.stage2_tlb.walker.walks            0                       # Table walker walks requested
system.cpu.dtb.stage2_mmu.stage2_tlb.walker.requestOrigin_Requested::Data            0                       # Table walker requests started/completed, data/inst
system.cpu.dtb.stage2_mmu.stage2_tlb.walker.requestOrigin_Requested::Inst            0                       # Table walker requests started/completed, data/inst
system.cpu.dtb.stage2_mmu.stage2_tlb.walker.requestOrigin_Requested::total            0                       # Table walker requests started/completed, data/inst
system.cpu.dtb.stage2_mmu.stage2_tlb.walker.requestOrigin_Completed::Data            0                       # Table walker requests started/completed, data/inst
system.cpu.dtb.stage2_mmu.stage2_tlb.walker.requestOrigin_Completed::Inst            0                       # Table walker requests started/completed, data/inst
system.cpu.dtb.stage2_mmu.stage2_tlb.walker.requestOrigin_Completed::total            0                       # Table walker requests started/completed, data/inst
system.cpu.dtb.stage2_mmu.stage2_tlb.walker.requestOrigin::total            0                       # Table walker requests started/completed, data/inst
system.cpu.dtb.stage2_mmu.stage2_tlb.walker.power_state.pwrStateResidencyTicks::UNDEFINED  80018492585                       # Cumulative time (in ticks) in various power states
system.cpu.dtb.walker.walks                         0                       # Table walker walks requested
system.cpu.dtb.walker.requestOrigin_Requested::Data            0                       # Table walker requests started/completed, data/inst
system.cpu.dtb.walker.requestOrigin_Requested::Inst            0                       # Table walker requests started/completed, data/inst
system.cpu.dtb.walker.requestOrigin_Requested::total            0                       # Table walker requests started/completed, data/inst
system.cpu.dtb.walker.requestOrigin_Completed::Data            0                       # Table walker requests started/completed, data/inst
system.cpu.dtb.walker.requestOrigin_Completed::Inst            0                       # Table walker requests started/completed, data/inst
system.cpu.dtb.walker.requestOrigin_Completed::total            0                       # Table walker requests started/completed, data/inst
system.cpu.dtb.walker.requestOrigin::total            0                       # Table walker requests started/completed, data/inst
system.cpu.dtb.walker.power_state.pwrStateResidencyTicks::UNDEFINED  80018492585                       # Cumulative time (in ticks) in various power states
system.cpu.fetch2.intInstructions            49405302                       # Number of integer instructions successfully decoded
system.cpu.fetch2.fpInstructions                    0                       # Number of floating point instructions successfully decoded
system.cpu.fetch2.vecInstructions                   0                       # Number of SIMD instructions successfully decoded
system.cpu.fetch2.loadInstructions           17098694                       # Number of memory load instructions successfully decoded
system.cpu.fetch2.storeInstructions           9762426                       # Number of memory store instructions successfully decoded
system.cpu.fetch2.amoInstructions                   0                       # Number of memory atomic instructions successfully decoded
system.cpu.icache.demand_hits::.cpu.inst     27551431                       # number of demand (read+write) hits
system.cpu.icache.demand_hits::total         27551431                       # number of demand (read+write) hits
system.cpu.icache.overall_hits::.cpu.inst     27551431                       # number of overall hits
system.cpu.icache.overall_hits::total        27551431                       # number of overall hits
system.cpu.icache.demand_misses::.cpu.inst       255584                       # number of demand (read+write) misses
system.cpu.icache.demand_misses::total         255584                       # number of demand (read+write) misses
system.cpu.icache.overall_misses::.cpu.inst       255584                       # number of overall misses
system.cpu.icache.overall_misses::total        255584                       # number of overall misses
system.cpu.icache.demand_miss_latency::.cpu.inst   4468551159                       # number of demand (read+write) miss cycles
system.cpu.icache.demand_miss_latency::total   4468551159                       # number of demand (read+write) miss cycles
system.cpu.icache.overall_miss_latency::.cpu.inst   4468551159                       # number of overall miss cycles
system.cpu.icache.overall_miss_latency::total   4468551159                       # number of overall miss cycles
system.cpu.icache.demand_accesses::.cpu.inst     27807015                       # number of demand (read+write) accesses
system.cpu.icache.demand_accesses::total     27807015                       # number of demand (read+write) accesses
system.cpu.icache.overall_accesses::.cpu.inst     27807015                       # number of overall (read+write) accesses
system.cpu.icache.overall_accesses::total     27807015                       # number of overall (read+write) accesses
system.cpu.icache.demand_miss_rate::.cpu.inst     0.009191                       # miss rate for demand accesses
system.cpu.icache.demand_miss_rate::total     0.009191                       # miss rate for demand accesses
system.cpu.icache.overall_miss_rate::.cpu.inst     0.009191                       # miss rate for overall accesses
system.cpu.icache.overall_miss_rate::total     0.009191                       # miss rate for overall accesses
system.cpu.icache.demand_avg_miss_latency::.cpu.inst 17483.688959                       # average overall miss latency
system.cpu.icache.demand_avg_miss_latency::total 17483.688959                       # average overall miss latency
system.cpu.icache.overall_avg_miss_latency::.cpu.inst 17483.688959                       # average overall miss latency
system.cpu.icache.overall_avg_miss_latency::total 17483.688959                       # average overall miss latency
system.cpu.icache.blocked_cycles::no_mshrs            0                       # number of cycles access was blocked
system.cpu.icache.blocked_cycles::no_targets            0                       # number of cycles access was blocked
system.cpu.icache.blocked::no_mshrs                 0                       # number of cycles access was blocked
system.cpu.icache.blocked::no_targets               0                       # number of cycles access was blocked
system.cpu.icache.avg_blocked_cycles::no_mshrs          nan                       # average number of cycles each access was blocked
system.cpu.icache.avg_blocked_cycles::no_targets          nan                       # average number of cycles each access was blocked
system.cpu.icache.writebacks::.writebacks       255077                       # number of writebacks
system.cpu.icache.writebacks::total            255077                       # number of writebacks
system.cpu.icache.demand_mshr_misses::.cpu.inst       255584                       # number of demand (read+write) MSHR misses
system.cpu.icache.demand_mshr_misses::total       255584                       # number of demand (read+write) MSHR misses
system.cpu.icache.overall_mshr_misses::.cpu.inst       255584                       # number of overall MSHR misses
system.cpu.icache.overall_mshr_misses::total       255584                       # number of overall MSHR misses
system.cpu.icache.demand_mshr_miss_latency::.cpu.inst   4127602103                       # number of demand (read+write) MSHR miss cycles
system.cpu.icache.demand_mshr_miss_latency::total   4127602103                       # number of demand (read+write) MSHR miss cycles
system.cpu.icache.overall_mshr_miss_latency::.cpu.inst   4127602103                       # number of overall MSHR miss cycles
system.cpu.icache.overall_mshr_miss_latency::total   4127602103                       # number of overall MSHR miss cycles
system.cpu.icache.demand_mshr_miss_rate::.cpu.inst     0.009191                       # mshr miss rate for demand accesses
system.cpu.icache.demand_mshr_miss_rate::total     0.009191                       # mshr miss rate for demand accesses
system.cpu.icache.overall_mshr_miss_rate::.cpu.inst     0.009191                       # mshr miss rate for overall accesses
system.cpu.icache.overall_mshr_miss_rate::total     0.009191                       # mshr miss rate for overall accesses
system.cpu.icache.demand_avg_mshr_miss_latency::.cpu.inst 16149.688959                       # average overall mshr miss latency
system.cpu.icache.demand_avg_mshr_miss_latency::total 16149.688959                       # average overall mshr miss latency
system.cpu.icache.overall_avg_mshr_miss_latency::.cpu.inst 16149.688959                       # average overall mshr miss latency
system.cpu.icache.overall_avg_mshr_miss_latency::total 16149.688959                       # average overall mshr miss latency
system.cpu.icache.replacements                 255077                       # number of replacements
system.cpu.icache.ReadReq_hits::.cpu.inst     27551431                       # number of ReadReq hits
system.cpu.icache.ReadReq_hits::total        27551431                       # number of ReadReq hits
system.cpu.icache.ReadReq_misses::.cpu.inst       255584                       # number of ReadReq misses
system.cpu.icache.ReadReq_misses::total        255584                       # number of ReadReq misses
system.cpu.icache.ReadReq_miss_latency::.cpu.inst   4468551159                       # number of ReadReq miss cycles
system.cpu.icache.ReadReq_miss_latency::total   4468551159                       # number of ReadReq miss cycles
system.cpu.icache.ReadReq_accesses::.cpu.inst     27807015                       # number of ReadReq accesses(hits+misses)
system.cpu.icache.ReadReq_accesses::total     27807015                       # number of ReadReq accesses(hits+misses)
system.cpu.icache.ReadReq_miss_rate::.cpu.inst     0.009191                       # miss rate for ReadReq accesses
system.cpu.icache.ReadReq_miss_rate::total     0.009191                       # miss rate for ReadReq accesses
system.cpu.icache.ReadReq_avg_miss_latency::.cpu.inst 17483.688959                       # average ReadReq miss latency
system.cpu.icache.ReadReq_avg_miss_latency::total 17483.688959                       # average ReadReq miss latency
system.cpu.icache.ReadReq_mshr_misses::.cpu.inst       255584                       # number of ReadReq MSHR misses
system.cpu.icache.ReadReq_mshr_misses::total       255584                       # number of ReadReq MSHR misses
system.cpu.icache.ReadReq_mshr_miss_latency::.cpu.inst   4127602103                       # number of ReadReq MSHR miss cycles
system.cpu.icache.ReadReq_mshr_miss_latency::total   4127602103                       # number of ReadReq MSHR miss cycles
system.cpu.icache.ReadReq_mshr_miss_rate::.cpu.inst     0.009191                       # mshr miss rate for ReadReq accesses
system.cpu.icache.ReadReq_mshr_miss_rate::total     0.009191                       # mshr miss rate for ReadReq accesses
system.cpu.icache.ReadReq_avg_mshr_miss_latency::.cpu.inst 16149.688959                       # average ReadReq mshr miss latency
system.cpu.icache.ReadReq_avg_mshr_miss_latency::total 16149.688959                       # average ReadReq mshr miss latency
system.cpu.icache.power_state.pwrStateResidencyTicks::UNDEFINED  80018492585                       # Cumulative time (in ticks) in various power states
system.cpu.icache.tags.tagsinuse           505.941788                       # Cycle average of tags in use
system.cpu.icache.tags.total_refs            27807015                       # Total number of references to valid blocks.
system.cpu.icache.tags.sampled_refs            255584                       # Sample count of references to valid blocks.
system.cpu.icache.tags.avg_refs            108.797949                       # Average number of references to valid blocks.
system.cpu.icache.tags.warmup_cycle             94047                       # Cycle when the warmup percentage was hit.
system.cpu.icache.tags.occ_blocks::.cpu.inst   505.941788                       # Average occupied blocks per requestor
system.cpu.icache.tags.occ_percent::.cpu.inst     0.247042                       # Average percentage of cache occupancy
system.cpu.icache.tags.occ_percent::total     0.247042                       # Average percentage of cache occupancy
system.cpu.icache.tags.occ_task_id_blocks::1024          507                       # Occupied blocks per task id
system.cpu.icache.tags.age_task_id_blocks_1024::0            1                       # Occupied blocks per task id
system.cpu.icache.tags.age_task_id_blocks_1024::3            2                       # Occupied blocks per task id
system.cpu.icache.tags.age_task_id_blocks_1024::4          504                       # Occupied blocks per task id
system.cpu.icache.tags.occ_task_id_percent::1024     0.247559                       # Percentage of cache occupancy per task id
system.cpu.icache.tags.tag_accesses          28062599                       # Number of tag accesses
system.cpu.icache.tags.data_accesses         28062599                       # Number of data accesses
system.cpu.icache.tags.power_state.pwrStateResidencyTicks::UNDEFINED  80018492585                       # Cumulative time (in ticks) in various power states
system.cpu.itb.instHits                             0                       # ITB inst hits
system.cpu.itb.instMisses                           0                       # ITB inst misses
system.cpu.itb.readHits                             0                       # DTB read hits
system.cpu.itb.readMisses                           0                       # DTB read misses
system.cpu.itb.writeHits                            0                       # DTB write hits
system.cpu.itb.writeMisses                          0                       # DTB write misses
system.cpu.itb.inserts                              0                       # Number of times an entry is inserted into the TLB
system.cpu.itb.flushTlb                             0                       # Number of times complete TLB was flushed
system.cpu.itb.flushTlbMva                          0                       # Number of times TLB was flushed by MVA
system.cpu.itb.flushTlbMvaAsid                      0                       # Number of times TLB was flushed by MVA & ASID
system.cpu.itb.flushTlbAsid                         0                       # Number of times TLB was flushed by ASID
system.cpu.itb.flushedEntries                       0                       # Number of entries that have been flushed from TLB
system.cpu.itb.alignFaults                          0                       # Number of TLB faults due to alignment restrictions
system.cpu.itb.prefetchFaults                       0                       # Number of TLB faults due to prefetch
system.cpu.itb.domainFaults                         0                       # Number of TLB faults due to domain restrictions
system.cpu.itb.permsFaults                          0                       # Number of TLB faults due to permissions restrictions
system.cpu.itb.readAccesses                         0                       # DTB read accesses
system.cpu.itb.writeAccesses                        0                       # DTB write accesses
system.cpu.itb.instAccesses                         0                       # ITB inst accesses
system.cpu.itb.hits                                 0                       # Total TLB (inst and data) hits
system.cpu.itb.misses                               0                       # Total TLB (inst and data) misses
system.cpu.itb.accesses                             0                       # Total TLB (inst and data) accesses
system.cpu.itb.stage2_mmu.stage2_tlb.instHits            0                       # ITB inst hits
system.cpu.itb.stage2_mmu.stage2_tlb.instMisses            0                       # ITB inst misses
system.cpu.itb.stage2_mmu.stage2_tlb.readHits            0                       # DTB read hits
system.cpu.itb.stage2_mmu.stage2_tlb.readMisses            0                       # DTB read misses
system.cpu.itb.stage2_mmu.stage2_tlb.writeHits            0                       # DTB write hits
system.cpu.itb.stage2_mmu.stage2_tlb.writeMisses            0                       # DTB write misses
system.cpu.itb.stage2_mmu.stage2_tlb.inserts            0                       # Number of times an entry is inserted into the TLB
system.cpu.itb.stage2_mmu.stage2_tlb.flushTlb            0                       # Number of times complete TLB was flushed
system.cpu.itb.stage2_mmu.stage2_tlb.flushTlbMva            0                       # Number of times TLB was flushed by MVA
system.cpu.itb.stage2_mmu.stage2_tlb.flushTlbMvaAsid            0                       # Number of times TLB was flushed by MVA & ASID
system.cpu.itb.stage2_mmu.stage2_tlb.flushTlbAsid            0                       # Number of times TLB was flushed by ASID
system.cpu.itb.stage2_mmu.stage2_tlb.flushedEntries            0                       # Number of entries that have been flushed from TLB
system.cpu.itb.stage2_mmu.stage2_tlb.alignFaults            0                       # Number of TLB faults due to alignment restrictions
system.cpu.itb.stage2_mmu.stage2_tlb.prefetchFaults            0                       # Number of TLB faults due to prefetch
system.cpu.itb.stage2_mmu.stage2_tlb.domainFaults            0                       # Number of TLB faults due to domain restrictions
system.cpu.itb.stage2_mmu.stage2_tlb.permsFaults            0                       # Number of TLB faults due to permissions restrictions
system.cpu.itb.stage2_mmu.stage2_tlb.readAccesses            0                       # DTB read accesses
system.cpu.itb.stage2_mmu.stage2_tlb.writeAccesses            0                       # DTB write accesses
system.cpu.itb.stage2_mmu.stage2_tlb.instAccesses            0                       # ITB inst accesses
system.cpu.itb.stage2_mmu.stage2_tlb.hits            0                       # Total TLB (inst and data) hits
system.cpu.itb.stage2_mmu.stage2_tlb.misses            0                       # Total TLB (inst and data) misses
system.cpu.itb.stage2_mmu.stage2_tlb.accesses            0                       # Total TLB (inst and data) accesses
system.cpu.itb.stage2_mmu.stage2_tlb.walker.walks            0                       # Table walker walks requested
system.cpu.itb.stage2_mmu.stage2_tlb.walker.requestOrigin_Requested::Data            0                       # Table walker requests started/completed, data/inst
system.cpu.itb.stage2_mmu.stage2_tlb.walker.requestOrigin_Requested::Inst            0                       # Table walker requests started/completed, data/inst
system.cpu.itb.stage2_mmu.stage2_tlb.walker.requestOrigin_Requested::total            0                       # Table walker requests started/completed, data/inst
system.cpu.itb.stage2_mmu.stage2_tlb.walker.requestOrigin_Completed::Data            0                       # Table walker requests started/completed, data/inst
system.cpu.itb.stage2_mmu.stage2_tlb.walker.requestOrigin_Completed::Inst            0                       # Table walker requests started/completed, data/inst
system.cpu.itb.stage2_mmu.stage2_tlb.walker.requestOrigin_Completed::total            0                       # Table walker requests started/completed, data/inst
system.cpu.itb.stage2_mmu.stage2_tlb.walker.requestOrigin::total            0                       # Table walker requests started/completed, data/inst
system.cpu.itb.stage2_mmu.stage2_tlb.walker.power_state.pwrStateResidencyTicks::UNDEFINED  80018492585                       # Cumulative time (in ticks) in various power states
system.cpu.itb.walker.walks                         0                       # Table walker walks requested
system.cpu.itb.walker.requestOrigin_Requested::Data            0                       # Table walker requests started/completed, data/inst
system.cpu.itb.walker.requestOrigin_Requested::Inst            0                       # Table walker requests started/completed, data/inst
system.cpu.itb.walker.requestOrigin_Requested::total            0                       # Table walker requests started/completed, data/inst
system.cpu.itb.walker.requestOrigin_Completed::Data            0                       # Table walker requests started/completed, data/inst
system.cpu.itb.walker.requestOrigin_Completed::Inst            0                       # Table walker requests started/completed, data/inst
system.cpu.itb.walker.requestOrigin_Completed::total            0                       # Table walker requests started/completed, data/inst
system.cpu.itb.walker.requestOrigin::total            0                       # Table walker requests started/completed, data/inst
system.cpu.itb.walker.power_state.pwrStateResidencyTicks::UNDEFINED  80018492585                       # Cumulative time (in ticks) in various power states
system.cpu.power_state.pwrStateResidencyTicks::ON  80018492585                       # Cumulative time (in ticks) in various power states
system.cpu.thread_0.numInsts                100000001                       # Number of Instructions committed
system.cpu.thread_0.numOps                  109423149                       # Number of Ops committed
system.cpu.thread_0.numMemRefs                      0                       # Number of Memory References
system.cpu_clk_domain.clock                       667                       # Clock period in ticks
system.cpu_voltage_domain.voltage                   1                       # Voltage in Volts
system.l2.demand_hits::.cpu.inst               255067                       # number of demand (read+write) hits
system.l2.demand_hits::.cpu.data                56854                       # number of demand (read+write) hits
system.l2.demand_hits::total                   311921                       # number of demand (read+write) hits
system.l2.overall_hits::.cpu.inst              255067                       # number of overall hits
system.l2.overall_hits::.cpu.data               56854                       # number of overall hits
system.l2.overall_hits::total                  311921                       # number of overall hits
system.l2.demand_misses::.cpu.inst                517                       # number of demand (read+write) misses
system.l2.demand_misses::.cpu.data              39370                       # number of demand (read+write) misses
system.l2.demand_misses::total                  39887                       # number of demand (read+write) misses
system.l2.overall_misses::.cpu.inst               517                       # number of overall misses
system.l2.overall_misses::.cpu.data             39370                       # number of overall misses
system.l2.overall_misses::total                 39887                       # number of overall misses
system.l2.demand_miss_latency::.cpu.inst     43443711                       # number of demand (read+write) miss cycles
system.l2.demand_miss_latency::.cpu.data   3405342487                       # number of demand (read+write) miss cycles
system.l2.demand_miss_latency::total       3448786198                       # number of demand (read+write) miss cycles
system.l2.overall_miss_latency::.cpu.inst     43443711                       # number of overall miss cycles
system.l2.overall_miss_latency::.cpu.data   3405342487                       # number of overall miss cycles
system.l2.overall_miss_latency::total      3448786198                       # number of overall miss cycles
system.l2.demand_accesses::.cpu.inst           255584                       # number of demand (read+write) accesses
system.l2.demand_accesses::.cpu.data            96224                       # number of demand (read+write) accesses
system.l2.demand_accesses::total               351808                       # number of demand (read+write) accesses
system.l2.overall_accesses::.cpu.inst          255584                       # number of overall (read+write) accesses
system.l2.overall_accesses::.cpu.data           96224                       # number of overall (read+write) accesses
system.l2.overall_accesses::total              351808                       # number of overall (read+write) accesses
system.l2.demand_miss_rate::.cpu.inst        0.002023                       # miss rate for demand accesses
system.l2.demand_miss_rate::.cpu.data        0.409149                       # miss rate for demand accesses
system.l2.demand_miss_rate::total            0.113377                       # miss rate for demand accesses
system.l2.overall_miss_rate::.cpu.inst       0.002023                       # miss rate for overall accesses
system.l2.overall_miss_rate::.cpu.data       0.409149                       # miss rate for overall accesses
system.l2.overall_miss_rate::total           0.113377                       # miss rate for overall accesses
system.l2.demand_avg_miss_latency::.cpu.inst 84030.388781                       # average overall miss latency
system.l2.demand_avg_miss_latency::.cpu.data 86495.872162                       # average overall miss latency
system.l2.demand_avg_miss_latency::total 86463.915511                       # average overall miss latency
system.l2.overall_avg_miss_latency::.cpu.inst 84030.388781                       # average overall miss latency
system.l2.overall_avg_miss_latency::.cpu.data 86495.872162                       # average overall miss latency
system.l2.overall_avg_miss_latency::total 86463.915511                       # average overall miss latency
system.l2.blocked_cycles::no_mshrs                  0                       # number of cycles access was blocked
system.l2.blocked_cycles::no_targets                0                       # number of cycles access was blocked
system.l2.blocked::no_mshrs                         0                       # number of cycles access was blocked
system.l2.blocked::no_targets                       0                       # number of cycles access was blocked
system.l2.avg_blocked_cycles::no_mshrs            nan                       # average number of cycles each access was blocked
system.l2.avg_blocked_cycles::no_targets          nan                       # average number of cycles each access was blocked
system.l2.writebacks::.writebacks                6541                       # number of writebacks
system.l2.writebacks::total                      6541                       # number of writebacks
system.l2.demand_mshr_hits::.cpu.data               5                       # number of demand (read+write) MSHR hits
system.l2.demand_mshr_hits::total                   5                       # number of demand (read+write) MSHR hits
system.l2.overall_mshr_hits::.cpu.data              5                       # number of overall MSHR hits
system.l2.overall_mshr_hits::total                  5                       # number of overall MSHR hits
system.l2.demand_mshr_misses::.cpu.inst           517                       # number of demand (read+write) MSHR misses
system.l2.demand_mshr_misses::.cpu.data         39365                       # number of demand (read+write) MSHR misses
system.l2.demand_mshr_misses::total             39882                       # number of demand (read+write) MSHR misses
system.l2.overall_mshr_misses::.cpu.inst          517                       # number of overall MSHR misses
system.l2.overall_mshr_misses::.cpu.data        39365                       # number of overall MSHR misses
system.l2.overall_mshr_misses::total            39882                       # number of overall MSHR misses
system.l2.demand_mshr_miss_latency::.cpu.inst     36400914                       # number of demand (read+write) MSHR miss cycles
system.l2.demand_mshr_miss_latency::.cpu.data   2868940904                       # number of demand (read+write) MSHR miss cycles
system.l2.demand_mshr_miss_latency::total   2905341818                       # number of demand (read+write) MSHR miss cycles
system.l2.overall_mshr_miss_latency::.cpu.inst     36400914                       # number of overall MSHR miss cycles
system.l2.overall_mshr_miss_latency::.cpu.data   2868940904                       # number of overall MSHR miss cycles
system.l2.overall_mshr_miss_latency::total   2905341818                       # number of overall MSHR miss cycles
system.l2.demand_mshr_miss_rate::.cpu.inst     0.002023                       # mshr miss rate for demand accesses
system.l2.demand_mshr_miss_rate::.cpu.data     0.409098                       # mshr miss rate for demand accesses
system.l2.demand_mshr_miss_rate::total       0.113363                       # mshr miss rate for demand accesses
system.l2.overall_mshr_miss_rate::.cpu.inst     0.002023                       # mshr miss rate for overall accesses
system.l2.overall_mshr_miss_rate::.cpu.data     0.409098                       # mshr miss rate for overall accesses
system.l2.overall_mshr_miss_rate::total      0.113363                       # mshr miss rate for overall accesses
system.l2.demand_avg_mshr_miss_latency::.cpu.inst 70407.957447                       # average overall mshr miss latency
system.l2.demand_avg_mshr_miss_latency::.cpu.data 72880.500546                       # average overall mshr miss latency
system.l2.demand_avg_mshr_miss_latency::total 72848.448373                       # average overall mshr miss latency
system.l2.overall_avg_mshr_miss_latency::.cpu.inst 70407.957447                       # average overall mshr miss latency
system.l2.overall_avg_mshr_miss_latency::.cpu.data 72880.500546                       # average overall mshr miss latency
system.l2.overall_avg_mshr_miss_latency::total 72848.448373                       # average overall mshr miss latency
system.l2.replacements                           7141                       # number of replacements
system.l2.WritebackDirty_hits::.writebacks        70380                       # number of WritebackDirty hits
system.l2.WritebackDirty_hits::total            70380                       # number of WritebackDirty hits
system.l2.WritebackDirty_accesses::.writebacks        70380                       # number of WritebackDirty accesses(hits+misses)
system.l2.WritebackDirty_accesses::total        70380                       # number of WritebackDirty accesses(hits+misses)
system.l2.WritebackClean_hits::.writebacks       255076                       # number of WritebackClean hits
system.l2.WritebackClean_hits::total           255076                       # number of WritebackClean hits
system.l2.WritebackClean_accesses::.writebacks       255076                       # number of WritebackClean accesses(hits+misses)
system.l2.WritebackClean_accesses::total       255076                       # number of WritebackClean accesses(hits+misses)
system.l2.CleanEvict_mshr_misses::.writebacks            1                       # number of CleanEvict MSHR misses
system.l2.CleanEvict_mshr_misses::total             1                       # number of CleanEvict MSHR misses
system.l2.CleanEvict_mshr_miss_rate::.writebacks          inf                       # mshr miss rate for CleanEvict accesses
system.l2.CleanEvict_mshr_miss_rate::total          inf                       # mshr miss rate for CleanEvict accesses
system.l2.ReadExReq_hits::.cpu.data              2127                       # number of ReadExReq hits
system.l2.ReadExReq_hits::total                  2127                       # number of ReadExReq hits
system.l2.ReadExReq_misses::.cpu.data           38792                       # number of ReadExReq misses
system.l2.ReadExReq_misses::total               38792                       # number of ReadExReq misses
system.l2.ReadExReq_miss_latency::.cpu.data   3350340333                       # number of ReadExReq miss cycles
system.l2.ReadExReq_miss_latency::total    3350340333                       # number of ReadExReq miss cycles
system.l2.ReadExReq_accesses::.cpu.data         40919                       # number of ReadExReq accesses(hits+misses)
system.l2.ReadExReq_accesses::total             40919                       # number of ReadExReq accesses(hits+misses)
system.l2.ReadExReq_miss_rate::.cpu.data     0.948019                       # miss rate for ReadExReq accesses
system.l2.ReadExReq_miss_rate::total         0.948019                       # miss rate for ReadExReq accesses
system.l2.ReadExReq_avg_miss_latency::.cpu.data 86366.785239                       # average ReadExReq miss latency
system.l2.ReadExReq_avg_miss_latency::total 86366.785239                       # average ReadExReq miss latency
system.l2.ReadExReq_mshr_misses::.cpu.data        38792                       # number of ReadExReq MSHR misses
system.l2.ReadExReq_mshr_misses::total          38792                       # number of ReadExReq MSHR misses
system.l2.ReadExReq_mshr_miss_latency::.cpu.data   2822130704                       # number of ReadExReq MSHR miss cycles
system.l2.ReadExReq_mshr_miss_latency::total   2822130704                       # number of ReadExReq MSHR miss cycles
system.l2.ReadExReq_mshr_miss_rate::.cpu.data     0.948019                       # mshr miss rate for ReadExReq accesses
system.l2.ReadExReq_mshr_miss_rate::total     0.948019                       # mshr miss rate for ReadExReq accesses
system.l2.ReadExReq_avg_mshr_miss_latency::.cpu.data 72750.327490                       # average ReadExReq mshr miss latency
system.l2.ReadExReq_avg_mshr_miss_latency::total 72750.327490                       # average ReadExReq mshr miss latency
system.l2.ReadCleanReq_hits::.cpu.inst         255067                       # number of ReadCleanReq hits
system.l2.ReadCleanReq_hits::total             255067                       # number of ReadCleanReq hits
system.l2.ReadCleanReq_misses::.cpu.inst          517                       # number of ReadCleanReq misses
system.l2.ReadCleanReq_misses::total              517                       # number of ReadCleanReq misses
system.l2.ReadCleanReq_miss_latency::.cpu.inst     43443711                       # number of ReadCleanReq miss cycles
system.l2.ReadCleanReq_miss_latency::total     43443711                       # number of ReadCleanReq miss cycles
system.l2.ReadCleanReq_accesses::.cpu.inst       255584                       # number of ReadCleanReq accesses(hits+misses)
system.l2.ReadCleanReq_accesses::total         255584                       # number of ReadCleanReq accesses(hits+misses)
system.l2.ReadCleanReq_miss_rate::.cpu.inst     0.002023                       # miss rate for ReadCleanReq accesses
system.l2.ReadCleanReq_miss_rate::total      0.002023                       # miss rate for ReadCleanReq accesses
system.l2.ReadCleanReq_avg_miss_latency::.cpu.inst 84030.388781                       # average ReadCleanReq miss latency
system.l2.ReadCleanReq_avg_miss_latency::total 84030.388781                       # average ReadCleanReq miss latency
system.l2.ReadCleanReq_mshr_misses::.cpu.inst          517                       # number of ReadCleanReq MSHR misses
system.l2.ReadCleanReq_mshr_misses::total          517                       # number of ReadCleanReq MSHR misses
system.l2.ReadCleanReq_mshr_miss_latency::.cpu.inst     36400914                       # number of ReadCleanReq MSHR miss cycles
system.l2.ReadCleanReq_mshr_miss_latency::total     36400914                       # number of ReadCleanReq MSHR miss cycles
system.l2.ReadCleanReq_mshr_miss_rate::.cpu.inst     0.002023                       # mshr miss rate for ReadCleanReq accesses
system.l2.ReadCleanReq_mshr_miss_rate::total     0.002023                       # mshr miss rate for ReadCleanReq accesses
system.l2.ReadCleanReq_avg_mshr_miss_latency::.cpu.inst 70407.957447                       # average ReadCleanReq mshr miss latency
system.l2.ReadCleanReq_avg_mshr_miss_latency::total 70407.957447                       # average ReadCleanReq mshr miss latency
system.l2.ReadSharedReq_hits::.cpu.data         54727                       # number of ReadSharedReq hits
system.l2.ReadSharedReq_hits::total             54727                       # number of ReadSharedReq hits
system.l2.ReadSharedReq_misses::.cpu.data          578                       # number of ReadSharedReq misses
system.l2.ReadSharedReq_misses::total             578                       # number of ReadSharedReq misses
system.l2.ReadSharedReq_miss_latency::.cpu.data     55002154                       # number of ReadSharedReq miss cycles
system.l2.ReadSharedReq_miss_latency::total     55002154                       # number of ReadSharedReq miss cycles
system.l2.ReadSharedReq_accesses::.cpu.data        55305                       # number of ReadSharedReq accesses(hits+misses)
system.l2.ReadSharedReq_accesses::total         55305                       # number of ReadSharedReq accesses(hits+misses)
system.l2.ReadSharedReq_miss_rate::.cpu.data     0.010451                       # miss rate for ReadSharedReq accesses
system.l2.ReadSharedReq_miss_rate::total     0.010451                       # miss rate for ReadSharedReq accesses
system.l2.ReadSharedReq_avg_miss_latency::.cpu.data 95159.435986                       # average ReadSharedReq miss latency
system.l2.ReadSharedReq_avg_miss_latency::total 95159.435986                       # average ReadSharedReq miss latency
system.l2.ReadSharedReq_mshr_hits::.cpu.data            5                       # number of ReadSharedReq MSHR hits
system.l2.ReadSharedReq_mshr_hits::total            5                       # number of ReadSharedReq MSHR hits
system.l2.ReadSharedReq_mshr_misses::.cpu.data          573                       # number of ReadSharedReq MSHR misses
system.l2.ReadSharedReq_mshr_misses::total          573                       # number of ReadSharedReq MSHR misses
system.l2.ReadSharedReq_mshr_miss_latency::.cpu.data     46810200                       # number of ReadSharedReq MSHR miss cycles
system.l2.ReadSharedReq_mshr_miss_latency::total     46810200                       # number of ReadSharedReq MSHR miss cycles
system.l2.ReadSharedReq_mshr_miss_rate::.cpu.data     0.010361                       # mshr miss rate for ReadSharedReq accesses
system.l2.ReadSharedReq_mshr_miss_rate::total     0.010361                       # mshr miss rate for ReadSharedReq accesses
system.l2.ReadSharedReq_avg_mshr_miss_latency::.cpu.data 81693.193717                       # average ReadSharedReq mshr miss latency
system.l2.ReadSharedReq_avg_mshr_miss_latency::total 81693.193717                       # average ReadSharedReq mshr miss latency
system.l2.power_state.pwrStateResidencyTicks::UNDEFINED  80018492585                       # Cumulative time (in ticks) in various power states
system.l2.tags.tagsinuse                 26208.460024                       # Cycle average of tags in use
system.l2.tags.total_refs                      700592                       # Total number of references to valid blocks.
system.l2.tags.sampled_refs                     39909                       # Sample count of references to valid blocks.
system.l2.tags.avg_refs                     17.554737                       # Average number of references to valid blocks.
system.l2.tags.warmup_cycle                     80000                       # Cycle when the warmup percentage was hit.
system.l2.tags.occ_blocks::.writebacks       5.225946                       # Average occupied blocks per requestor
system.l2.tags.occ_blocks::.cpu.inst       256.560383                       # Average occupied blocks per requestor
system.l2.tags.occ_blocks::.cpu.data     25946.673695                       # Average occupied blocks per requestor
system.l2.tags.occ_percent::.writebacks      0.000159                       # Average percentage of cache occupancy
system.l2.tags.occ_percent::.cpu.inst        0.007830                       # Average percentage of cache occupancy
system.l2.tags.occ_percent::.cpu.data        0.791830                       # Average percentage of cache occupancy
system.l2.tags.occ_percent::total            0.799819                       # Average percentage of cache occupancy
system.l2.tags.occ_task_id_blocks::1024         32768                       # Occupied blocks per task id
system.l2.tags.age_task_id_blocks_1024::0            3                       # Occupied blocks per task id
system.l2.tags.age_task_id_blocks_1024::1           25                       # Occupied blocks per task id
system.l2.tags.age_task_id_blocks_1024::2          288                       # Occupied blocks per task id
system.l2.tags.age_task_id_blocks_1024::3         2733                       # Occupied blocks per task id
system.l2.tags.age_task_id_blocks_1024::4        29719                       # Occupied blocks per task id
system.l2.tags.occ_task_id_percent::1024            1                       # Percentage of cache occupancy per task id
system.l2.tags.tag_accesses                   1441105                       # Number of tag accesses
system.l2.tags.data_accesses                  1441105                       # Number of data accesses
system.l2.tags.power_state.pwrStateResidencyTicks::UNDEFINED  80018492585                       # Cumulative time (in ticks) in various power states
system.mem_ctrls.avgPriority_.writebacks::samples      6541.00                       # Average QoS priority value for accepted requests
system.mem_ctrls.avgPriority_.cpu.inst::samples       517.00                       # Average QoS priority value for accepted requests
system.mem_ctrls.avgPriority_.cpu.data::samples     39359.00                       # Average QoS priority value for accepted requests
system.mem_ctrls.priorityMinLatency      0.000000018750                       # per QoS priority minimum request to response latency (s)
system.mem_ctrls.priorityMaxLatency      0.042336859668                       # per QoS priority maximum request to response latency (s)
system.mem_ctrls.numReadWriteTurnArounds          362                       # Number of turnarounds from READ to WRITE
system.mem_ctrls.numWriteReadTurnArounds          362                       # Number of turnarounds from WRITE to READ
system.mem_ctrls.numStayReadState              106808                       # Number of times bus staying in READ state
system.mem_ctrls.numStayWriteState               6180                       # Number of times bus staying in WRITE state
system.mem_ctrls.readReqs                       39882                       # Number of read requests accepted
system.mem_ctrls.writeReqs                       6541                       # Number of write requests accepted
system.mem_ctrls.readBursts                     39882                       # Number of controller read bursts, including those serviced by the write queue
system.mem_ctrls.writeBursts                     6541                       # Number of controller write bursts, including those merged in the write queue
system.mem_ctrls.servicedByWrQ                      6                       # Number of controller read bursts serviced by the write queue
system.mem_ctrls.mergedWrBursts                     0                       # Number of controller write bursts merged with an existing one
system.mem_ctrls.neitherReadNorWriteReqs            0                       # Number of requests that are neither read nor write
system.mem_ctrls.avgRdQLen                       1.00                       # Average read queue length when enqueuing
system.mem_ctrls.avgWrQLen                      12.35                       # Average write queue length when enqueuing
system.mem_ctrls.numRdRetry                         0                       # Number of times read queue was full causing retry
system.mem_ctrls.numWrRetry                         0                       # Number of times write queue was full causing retry
system.mem_ctrls.readPktSize::0                     0                       # Read request sizes (log2)
system.mem_ctrls.readPktSize::1                     0                       # Read request sizes (log2)
system.mem_ctrls.readPktSize::2                     0                       # Read request sizes (log2)
[...]
system.mem_ctrls.dram.bw_write::.writebacks      5231591                       # Write bandwidth from this memory (bytes/s)
system.mem_ctrls.dram.bw_write::total         5231591                       # Write bandwidth from this memory (bytes/s)
system.mem_ctrls.dram.bw_total::.writebacks      5231591                       # Total bandwidth to/from this memory (bytes/s)
system.mem_ctrls.dram.bw_total::.cpu.inst       413504                       # Total bandwidth to/from this memory (bytes/s)
system.mem_ctrls.dram.bw_total::.cpu.data     31484722                       # Total bandwidth to/from this memory (bytes/s)
system.mem_ctrls.dram.bw_total::total        37129817                       # Total bandwidth to/from this memory (bytes/s)
system.mem_ctrls.dram.readBursts                39876                       # Number of DRAM read bursts
system.mem_ctrls.dram.writeBursts                6526                       # Number of DRAM write bursts
system.mem_ctrls.dram.perBankRdBursts::0         2518                       # Per bank write bursts
system.mem_ctrls.dram.perBankRdBursts::1         2505                       # Per bank write bursts
system.mem_ctrls.dram.perBankRdBursts::2         2480                       # Per bank write bursts
system.mem_ctrls.dram.perBankRdBursts::3         2541                       # Per bank write bursts
system.mem_ctrls.dram.perBankRdBursts::4         2476                       # Per bank write bursts
system.mem_ctrls.dram.perBankRdBursts::5         2455                       # Per bank write bursts
system.mem_ctrls.dram.perBankRdBursts::6         2387                       # Per bank write bursts
system.mem_ctrls.dram.perBankRdBursts::7         2452                       # Per bank write bursts
system.mem_ctrls.dram.perBankRdBursts::8         2500                       # Per bank write bursts
system.mem_ctrls.dram.perBankRdBursts::9         2504                       # Per bank write bursts
system.mem_ctrls.dram.perBankRdBursts::10         2500                       # Per bank write bursts
system.mem_ctrls.dram.perBankRdBursts::11         2537                       # Per bank write bursts
system.mem_ctrls.dram.perBankRdBursts::12         2492                       # Per bank write bursts
system.mem_ctrls.dram.perBankRdBursts::13         2488                       # Per bank write bursts
system.mem_ctrls.dram.perBankRdBursts::14         2511                       # Per bank write bursts
system.mem_ctrls.dram.perBankRdBursts::15         2530                       # Per bank write bursts
system.mem_ctrls.dram.perBankWrBursts::0          428                       # Per bank write bursts
system.mem_ctrls.dram.perBankWrBursts::1          424                       # Per bank write bursts
system.mem_ctrls.dram.perBankWrBursts::2          422                       # Per bank write bursts
system.mem_ctrls.dram.perBankWrBursts::3          417                       # Per bank write bursts
system.mem_ctrls.dram.perBankWrBursts::4          396                       # Per bank write bursts
system.mem_ctrls.dram.perBankWrBursts::5          408                       # Per bank write bursts
system.mem_ctrls.dram.perBankWrBursts::6          339                       # Per bank write bursts
system.mem_ctrls.dram.perBankWrBursts::7          376                       # Per bank write bursts
system.mem_ctrls.dram.perBankWrBursts::8          425                       # Per bank write bursts
system.mem_ctrls.dram.perBankWrBursts::9          405                       # Per bank write bursts
system.mem_ctrls.dram.perBankWrBursts::10          414                       # Per bank write bursts
system.mem_ctrls.dram.perBankWrBursts::11          423                       # Per bank write bursts
system.mem_ctrls.dram.perBankWrBursts::12          394                       # Per bank write bursts
system.mem_ctrls.dram.perBankWrBursts::13          416                       # Per bank write bursts
system.mem_ctrls.dram.perBankWrBursts::14          403                       # Per bank write bursts
system.mem_ctrls.dram.perBankWrBursts::15          436                       # Per bank write bursts
system.mem_ctrls.dram.totQLat               368597964                       # Total ticks spent queuing
system.mem_ctrls.dram.totBusLat             199380000                       # Total ticks spent in databus transfers
system.mem_ctrls.dram.totMemAccLat         1116272964                       # Total ticks spent from burst creation until serviced by the DRAM
system.mem_ctrls.dram.avgQLat                 9243.60                       # Average queueing delay per DRAM burst
system.mem_ctrls.dram.avgBusLat               5000.00                       # Average bus latency per DRAM burst
system.mem_ctrls.dram.avgMemAccLat           27993.60                       # Average memory access latency per DRAM burst
system.mem_ctrls.dram.readRowHits               27062                       # Number of row buffer hits during reads
system.mem_ctrls.dram.writeRowHits               5539                       # Number of row buffer hits during writes
system.mem_ctrls.dram.readRowHitRate            67.87                       # Row buffer hit rate for reads
system.mem_ctrls.dram.writeRowHitRate           84.88                       # Row buffer hit rate for writes
system.mem_ctrls.dram.bytesPerActivate::samples        13800                       # Bytes accessed per row activation
system.mem_ctrls.dram.bytesPerActivate::mean   215.188406                       # Bytes accessed per row activation
system.mem_ctrls.dram.bytesPerActivate::gmean   167.772656                       # Bytes accessed per row activation
system.mem_ctrls.dram.bytesPerActivate::stdev   192.340905                       # Bytes accessed per row activation
system.mem_ctrls.dram.bytesPerActivate::0-127         1373      9.95%      9.95% # Bytes accessed per row activation
system.mem_ctrls.dram.bytesPerActivate::128-255         9326     67.58%     77.53% # Bytes accessed per row activation
system.mem_ctrls.dram.bytesPerActivate::256-383          811      5.88%     83.41% # Bytes accessed per row activation
system.mem_ctrls.dram.bytesPerActivate::384-511          791      5.73%     89.14% # Bytes accessed per row activation
system.mem_ctrls.dram.bytesPerActivate::512-639          595      4.31%     93.45% # Bytes accessed per row activation
system.mem_ctrls.dram.bytesPerActivate::640-767          437      3.17%     96.62% # Bytes accessed per row activation
system.mem_ctrls.dram.bytesPerActivate::768-895          185      1.34%     97.96% # Bytes accessed per row activation
system.mem_ctrls.dram.bytesPerActivate::896-1023           60      0.43%     98.39% # Bytes accessed per row activation
system.mem_ctrls.dram.bytesPerActivate::1024-1151          222      1.61%    100.00% # Bytes accessed per row activation
system.mem_ctrls.dram.bytesPerActivate::total        13800                       # Bytes accessed per row activation
system.mem_ctrls.dram.bytesRead               2552064                       # Total number of bytes read from DRAM
system.mem_ctrls.dram.bytesWritten             417664                       # Total number of bytes written to DRAM
system.mem_ctrls.dram.avgRdBW               31.893428                       # Average DRAM read bandwidth in MiBytes/s
system.mem_ctrls.dram.avgWrBW                5.219593                       # Average DRAM write bandwidth in MiBytes/s
system.mem_ctrls.dram.peakBW                 12800.00                       # Theoretical peak bandwidth in MiByte/s
system.mem_ctrls.dram.busUtil                    0.29                       # Data bus utilization in percentage
system.mem_ctrls.dram.busUtilRead                0.25                       # Data bus utilization in percentage for reads
system.mem_ctrls.dram.busUtilWrite               0.04                       # Data bus utilization in percentage for writes
system.mem_ctrls.dram.pageHitRate               70.26                       # Row buffer hit rate, read and write combined
system.mem_ctrls.dram.power_state.pwrStateResidencyTicks::UNDEFINED  80018492585                       # Cumulative time (in ticks) in various power states
system.mem_ctrls.dram.rank0.actEnergy        49658700                       # Energy for activate commands per rank (pJ)
system.mem_ctrls.dram.rank0.preEnergy        26390430                       # Energy for precharge commands per rank (pJ)
system.mem_ctrls.dram.rank0.readEnergy      141471960                       # Energy for read commands per rank (pJ)
system.mem_ctrls.dram.rank0.writeEnergy      16756200                       # Energy for write commands per rank (pJ)
system.mem_ctrls.dram.rank0.refreshEnergy 6316040640.000001                       # Energy for refresh commands per rank (pJ)
system.mem_ctrls.dram.rank0.actBackEnergy  16214516970                       # Energy for active background per rank (pJ)
system.mem_ctrls.dram.rank0.preBackEnergy  17072771520                       # Energy for precharge background per rank (pJ)
system.mem_ctrls.dram.rank0.actPowerDownEnergy            0                       # Energy for active power-down per rank (pJ)
system.mem_ctrls.dram.rank0.prePowerDownEnergy            0                       # Energy for precharge power-down per rank (pJ)
system.mem_ctrls.dram.rank0.selfRefreshEnergy            0                       # Energy for self refresh per rank (pJ)
system.mem_ctrls.dram.rank0.totalEnergy   39837606420                       # Total energy per rank (pJ)
system.mem_ctrls.dram.rank0.averagePower   497.854997                       # Core power per rank (mW)
system.mem_ctrls.dram.rank0.totalIdleTime            0                       # Total Idle time Per DRAM Rank
system.mem_ctrls.dram.rank0.pwrStateTime::IDLE  44237395949                       # Time in different power states
system.mem_ctrls.dram.rank0.pwrStateTime::REF   2671760000                       # Time in different power states
system.mem_ctrls.dram.rank0.pwrStateTime::SREF            0                       # Time in different power states
system.mem_ctrls.dram.rank0.pwrStateTime::PRE_PDN            0                       # Time in different power states
system.mem_ctrls.dram.rank0.pwrStateTime::ACT  33109336636                       # Time in different power states
system.mem_ctrls.dram.rank0.pwrStateTime::ACT_PDN            0                       # Time in different power states
system.mem_ctrls.dram.rank1.actEnergy        48880440                       # Energy for activate commands per rank (pJ)
system.mem_ctrls.dram.rank1.preEnergy        25980570                       # Energy for precharge commands per rank (pJ)
system.mem_ctrls.dram.rank1.readEnergy      143242680                       # Energy for read commands per rank (pJ)
system.mem_ctrls.dram.rank1.writeEnergy      17309520                       # Energy for write commands per rank (pJ)
system.mem_ctrls.dram.rank1.refreshEnergy 6316040640.000001                       # Energy for refresh commands per rank (pJ)
system.mem_ctrls.dram.rank1.actBackEnergy  15925977270                       # Energy for active background per rank (pJ)
system.mem_ctrls.dram.rank1.preBackEnergy  17315752320                       # Energy for precharge background per rank (pJ)
system.mem_ctrls.dram.rank1.actPowerDownEnergy            0                       # Energy for active power-down per rank (pJ)
system.mem_ctrls.dram.rank1.prePowerDownEnergy            0                       # Energy for precharge power-down per rank (pJ)
system.mem_ctrls.dram.rank1.selfRefreshEnergy            0                       # Energy for self refresh per rank (pJ)
system.mem_ctrls.dram.rank1.totalEnergy   39793183440                       # Total energy per rank (pJ)
system.mem_ctrls.dram.rank1.averagePower   497.299839                       # Core power per rank (mW)
system.mem_ctrls.dram.rank1.totalIdleTime            0                       # Total Idle time Per DRAM Rank
system.mem_ctrls.dram.rank1.pwrStateTime::IDLE  44871641205                       # Time in different power states
system.mem_ctrls.dram.rank1.pwrStateTime::REF   2671760000                       # Time in different power states
system.mem_ctrls.dram.rank1.pwrStateTime::SREF            0                       # Time in different power states
system.mem_ctrls.dram.rank1.pwrStateTime::PRE_PDN            0                       # Time in different power states
system.mem_ctrls.dram.rank1.pwrStateTime::ACT  32475091380                       # Time in different power states
system.mem_ctrls.dram.rank1.pwrStateTime::ACT_PDN            0                       # Time in different power states
system.mem_ctrls.power_state.pwrStateResidencyTicks::UNDEFINED  80018492585                       # Cumulative time (in ticks) in various power states
system.membus.trans_dist::ReadResp               1090                       # Transaction distribution
system.membus.trans_dist::WritebackDirty         6541                       # Transaction distribution
system.membus.trans_dist::CleanEvict               76                       # Transaction distribution
system.membus.trans_dist::ReadExReq             38792                       # Transaction distribution
system.membus.trans_dist::ReadExResp            38792                       # Transaction distribution
system.membus.trans_dist::ReadSharedReq          1090                       # Transaction distribution
system.membus.pkt_count_system.l2.mem_side_port::system.mem_ctrls.port        86381                       # Packet count per connected requestor and responder (bytes)
system.membus.pkt_count::total                  86381                       # Packet count per connected requestor and responder (bytes)
system.membus.pkt_size_system.l2.mem_side_port::system.mem_ctrls.port      2971072                       # Cumulative packet size per connected requestor and responder (bytes)
system.membus.pkt_size::total                 2971072                       # Cumulative packet size per connected requestor and responder (bytes)
system.membus.snoops                                0                       # Total snoops (count)
system.membus.snoopTraffic                          0                       # Total snoop traffic (bytes)
system.membus.snoop_fanout::samples             39882                       # Request fanout histogram
system.membus.snoop_fanout::mean                    0                       # Request fanout histogram
system.membus.snoop_fanout::stdev                   0                       # Request fanout histogram
system.membus.snoop_fanout::underflows              0      0.00%      0.00% # Request fanout histogram
system.membus.snoop_fanout::0                   39882    100.00%    100.00% # Request fanout histogram
system.membus.snoop_fanout::1                       0      0.00%    100.00% # Request fanout histogram
system.membus.snoop_fanout::overflows               0      0.00%    100.00% # Request fanout histogram
system.membus.snoop_fanout::min_value               0                       # Request fanout histogram
system.membus.snoop_fanout::max_value               0                       # Request fanout histogram
system.membus.snoop_fanout::total               39882                       # Request fanout histogram
system.membus.power_state.pwrStateResidencyTicks::UNDEFINED  80018492585                       # Cumulative time (in ticks) in various power states
system.membus.reqLayer0.occupancy            95965699                       # Layer occupancy (ticks)
system.membus.reqLayer0.utilization               0.1                       # Layer utilization (%)
system.membus.respLayer1.occupancy          212645566                       # Layer occupancy (ticks)
system.membus.respLayer1.utilization              0.3                       # Layer utilization (%)
system.tol2bus.trans_dist::ReadResp            310889                       # Transaction distribution
system.tol2bus.trans_dist::WritebackDirty        76921                       # Transaction distribution
system.tol2bus.trans_dist::WritebackClean       255077                       # Transaction distribution
system.tol2bus.trans_dist::CleanEvict           24396                       # Transaction distribution
system.tol2bus.trans_dist::ReadExReq            40919                       # Transaction distribution
system.tol2bus.trans_dist::ReadExResp           40919                       # Transaction distribution
system.tol2bus.trans_dist::ReadCleanReq        255584                       # Transaction distribution
system.tol2bus.trans_dist::ReadSharedReq        55305                       # Transaction distribution
system.tol2bus.pkt_count_system.cpu.icache.mem_side_port::system.l2.cpu_side_port       766245                       # Packet count per connected requestor and responder (bytes)
system.tol2bus.pkt_count_system.cpu.dcache.mem_side_port::system.l2.cpu_side_port       286624                       # Packet count per connected requestor and responder (bytes)
system.tol2bus.pkt_count::total               1052869                       # Packet count per connected requestor and responder (bytes)
system.tol2bus.pkt_size_system.cpu.icache.mem_side_port::system.l2.cpu_side_port     32682304                       # Cumulative packet size per connected requestor and responder (bytes)
system.tol2bus.pkt_size_system.cpu.dcache.mem_side_port::system.l2.cpu_side_port     10662656                       # Cumulative packet size per connected requestor and responder (bytes)
system.tol2bus.pkt_size::total               43344960                       # Cumulative packet size per connected requestor and responder (bytes)
system.tol2bus.snoops                            7141                       # Total snoops (count)
system.tol2bus.snoopTraffic                    418624                       # Total snoop traffic (bytes)
system.tol2bus.snoop_fanout::samples           358949                       # Request fanout histogram
system.tol2bus.snoop_fanout::mean            0.002766                       # Request fanout histogram
system.tol2bus.snoop_fanout::stdev           0.052524                       # Request fanout histogram
system.tol2bus.snoop_fanout::underflows             0      0.00%      0.00% # Request fanout histogram
system.tol2bus.snoop_fanout::0                 357956     99.72%     99.72% # Request fanout histogram
system.tol2bus.snoop_fanout::1                    993      0.28%    100.00% # Request fanout histogram
system.tol2bus.snoop_fanout::2                      0      0.00%    100.00% # Request fanout histogram
system.tol2bus.snoop_fanout::overflows              0      0.00%    100.00% # Request fanout histogram
system.tol2bus.snoop_fanout::min_value              0                       # Request fanout histogram
system.tol2bus.snoop_fanout::max_value              1                       # Request fanout histogram
system.tol2bus.snoop_fanout::total             358949                       # Request fanout histogram
system.tol2bus.power_state.pwrStateResidencyTicks::UNDEFINED  80018492585                       # Cumulative time (in ticks) in various power states
system.tol2bus.reqLayer0.occupancy          901767325                       # Layer occupancy (ticks)
system.tol2bus.reqLayer0.utilization              1.1                       # Layer utilization (%)
system.tol2bus.respLayer0.occupancy         511423584                       # Layer occupancy (ticks)
system.tol2bus.respLayer0.utilization             0.6                       # Layer utilization (%)
system.tol2bus.respLayer1.occupancy         192547554                       # Layer occupancy (ticks)
system.tol2bus.respLayer1.utilization             0.2                       # Layer utilization (%)
system.voltage_domain.voltage                       1                       # Voltage in Volts

---------- End Simulation Statistics   ----------
