
---------- Begin Simulation Statistics ----------
final_tick                               205421287314                       # Number of ticks from beginning of simulation (restored from checkpoints and never reset)
host_inst_rate                                 255540                       # Simulator instruction rate (inst/s)
host_mem_usage                                 682300                       # Number of bytes of host memory used
host_op_rate                                   255549                       # Simulator op (including micro ops) rate (op/s)
host_seconds                                   391.33                       # Real time elapsed on the host
host_tick_rate                              524933140                       # Simulator tick rate (ticks/s)
sim_freq                                 1000000000000                       # Frequency of simulated ticks
sim_insts                                   100000000                       # Number of instructions simulated
sim_ops                                     100003630                       # Number of ops (including micro ops) simulated
sim_seconds                                  0.205421                       # Number of seconds simulated
sim_ticks                                205421287314                       # Number of ticks simulated
system.cpu.committedInsts                   100000000                       # Number of instructions committed
system.cpu.committedOps                     100003630                       # Number of ops (including micro ops) committed
system.cpu.cpi                               3.079779                       # CPI: cycles per instruction
system.cpu.discardedOps                         21214                       # Number of ops (including micro ops) which were discarded before commit
system.cpu.idleCycles                       190608720                       # Total number of cycles that the object has spent stopped
system.cpu.ipc                               0.324699                       # IPC: instructions per cycle
system.cpu.numCycles                        307977942                       # number of cpu cycles simulated
system.cpu.numFetchSuspends                         0                       # Number of times Execute suspended instruction fetching
system.cpu.numWorkItemsCompleted                    0                       # number of work items this cpu completed
system.cpu.numWorkItemsStarted                      0                       # number of work items this cpu started
system.cpu.op_class_0::No_OpClass                   0      0.00%      0.00% # Class of committed instruction
system.cpu.op_class_0::IntAlu                49995352     49.99%     49.99% # Class of committed instruction
system.cpu.op_class_0::IntMult                     88      0.00%     49.99% # Class of committed instruction
system.cpu.op_class_0::IntDiv                       0      0.00%     49.99% # Class of committed instruction
system.cpu.op_class_0::FloatAdd                     0      0.00%     49.99% # Class of committed instruction
system.cpu.op_class_0::FloatCmp                     0      0.00%     49.99% # Class of committed instruction
system.cpu.op_class_0::FloatCvt                     0      0.00%     49.99% # Class of committed instruction
system.cpu.op_class_0::FloatMult                    0      0.00%     49.99% # Class of committed instruction
system.cpu.op_class_0::FloatMultAcc                 0      0.00%     49.99% # Class of committed instruction
system.cpu.op_class_0::FloatDiv                     0      0.00%     49.99% # Class of committed instruction
system.cpu.op_class_0::FloatMisc                    0      0.00%     49.99% # Class of committed instruction
system.cpu.op_class_0::FloatSqrt                    0      0.00%     49.99% # Class of committed instruction
system.cpu.op_class_0::SimdAdd                      0      0.00%     49.99% # Class of committed instruction
system.cpu.op_class_0::SimdAddAcc                   0      0.00%     49.99% # Class of committed instruction
system.cpu.op_class_0::SimdAlu                      0      0.00%     49.99% # Class of committed instruction
system.cpu.op_class_0::SimdCmp                      0      0.00%     49.99% # Class of committed instruction
system.cpu.op_class_0::SimdCvt                      0      0.00%     49.99% # Class of committed instruction
system.cpu.op_class_0::SimdMisc                     0      0.00%     49.99% # Class of committed instruction
system.cpu.op_class_0::SimdMult                     0      0.00%     49.99% # Class of committed instruction
system.cpu.op_class_0::SimdMultAcc                  0      0.00%     49.99% # Class of committed instruction
system.cpu.op_class_0::SimdShift                    0      0.00%     49.99% # Class of committed instruction
system.cpu.op_class_0::SimdShiftAcc                 0      0.00%     49.99% # Class of committed instruction
system.cpu.op_class_0::SimdDiv                      0      0.00%     49.99% # Class of committed instruction
system.cpu.op_class_0::SimdSqrt                     0      0.00%     49.99% # Class of committed instruction
system.cpu.op_class_0::SimdFloatAdd                 0      0.00%     49.99% # Class of committed instruction
system.cpu.op_class_0::SimdFloatAlu                 0      0.00%     49.99% # Class of committed instruction
system.cpu.op_class_0::SimdFloatCmp                 2      0.00%     49.99% # Class of committed instruction
system.cpu.op_class_0::SimdFloatCvt                 0      0.00%     49.99% # Class of committed instruction
system.cpu.op_class_0::SimdFloatDiv                 0      0.00%     49.99% # Class of committed instruction
system.cpu.op_class_0::SimdFloatMisc               22      0.00%     49.99% # Class of committed instruction
system.cpu.op_class_0::SimdFloatMult                0      0.00%     49.99% # Class of committed instruction
system.cpu.op_class_0::SimdFloatMultAcc             0      0.00%     49.99% # Class of committed instruction
system.cpu.op_class_0::SimdFloatSqrt                0      0.00%     49.99% # Class of committed instruction
system.cpu.op_class_0::SimdReduceAdd                0      0.00%     49.99% # Class of committed instruction
system.cpu.op_class_0::SimdReduceAlu                0      0.00%     49.99% # Class of committed instruction
system.cpu.op_class_0::SimdReduceCmp                0      0.00%     49.99% # Class of committed instruction
system.cpu.op_class_0::SimdFloatReduceAdd            0      0.00%     49.99% # Class of committed instruction
system.cpu.op_class_0::SimdFloatReduceCmp            0      0.00%     49.99% # Class of committed instruction
system.cpu.op_class_0::SimdAes                      0      0.00%     49.99% # Class of committed instruction
system.cpu.op_class_0::SimdAesMix                   0      0.00%     49.99% # Class of committed instruction
system.cpu.op_class_0::SimdSha1Hash                 0      0.00%     49.99% # Class of committed instruction
system.cpu.op_class_0::SimdSha1Hash2                0      0.00%     49.99% # Class of committed instruction
system.cpu.op_class_0::SimdSha256Hash               0      0.00%     49.99% # Class of committed instruction
system.cpu.op_class_0::SimdSha256Hash2              0      0.00%     49.99% # Class of committed instruction
system.cpu.op_class_0::SimdShaSigma2                0      0.00%     49.99% # Class of committed instruction
system.cpu.op_class_0::SimdShaSigma3                0      0.00%     49.99% # Class of committed instruction
system.cpu.op_class_0::SimdPredAlu                  0      0.00%     49.99% # Class of committed instruction
system.cpu.op_class_0::MemRead               36892283     36.89%     86.88% # Class of committed instruction
system.cpu.op_class_0::MemWrite              13115883     13.12%    100.00% # Class of committed instruction
system.cpu.op_class_0::FloatMemRead                 0      0.00%    100.00% # Class of committed instruction
system.cpu.op_class_0::FloatMemWrite                0      0.00%    100.00% # Class of committed instruction
system.cpu.op_class_0::IprAccess                    0      0.00%    100.00% # Class of committed instruction
system.cpu.op_class_0::InstPrefetch                 0      0.00%    100.00% # Class of committed instruction
system.cpu.op_class_0::total                100003630                       # Class of committed instruction
system.cpu.tickCycles                       117369222                       # Number of cycles that the object actually ticked
system.cpu.workload.numSyscalls                    19                       # Number of system calls
system.membus.snoop_filter.hit_multi_requests            0                       # Number of requests hitting in the snoop filter with multiple (>1) holders of the requested data.
system.membus.snoop_filter.hit_multi_snoops            0                       # Number of snoops hitting in the snoop filter with multiple (>1) holders of the requested data.
system.membus.snoop_filter.hit_single_requests      1454856                       # Number of requests hitting in the snoop filter with a single holder of the requested data.
system.membus.snoop_filter.hit_single_snoops            0                       # Number of snoops hitting in the snoop filter with a single holder of the requested data.
system.membus.snoop_filter.tot_requests       2942967                       # Total number of requests made to the snoop filter.
system.membus.snoop_filter.tot_snoops               0                       # Total number of snoops made to the snoop filter.
system.tol2bus.snoop_filter.hit_multi_requests         2932                       # Number of requests hitting in the snoop filter with multiple (>1) holders of the requested data.
system.tol2bus.snoop_filter.hit_multi_snoops            0                       # Number of snoops hitting in the snoop filter with multiple (>1) holders of the requested data.
system.tol2bus.snoop_filter.hit_single_requests      1495779                       # Number of requests hitting in the snoop filter with a single holder of the requested data.
system.tol2bus.snoop_filter.hit_single_snoops          487                       # Number of snoops hitting in the snoop filter with a single holder of the requested data.
system.tol2bus.snoop_filter.tot_requests      2994092                       # Total number of requests made to the snoop filter.
system.tol2bus.snoop_filter.tot_snoops            487                       # Total number of snoops made to the snoop filter.
system.clk_domain.clock                          1000                       # Clock period in ticks
system.cpu.branchPred.lookups                  606462                       # Number of BP lookups
system.cpu.branchPred.condPredicted            604404                       # Number of conditional branches predicted
system.cpu.branchPred.condIncorrect               824                       # Number of conditional branches incorrect
system.cpu.branchPred.BTBLookups               602488                       # Number of BTB lookups
system.cpu.branchPred.BTBHits                  601457                       # Number of BTB hits
system.cpu.branchPred.BTBHitPct             99.828876                       # BTB Hit Percentage
system.cpu.branchPred.RASUsed                     553                       # Number of times the RAS was used to get a target.
system.cpu.branchPred.RASIncorrect                  2                       # Number of incorrect RAS predictions.
system.cpu.branchPred.indirectLookups             372                       # Number of indirect predictor lookups.
system.cpu.branchPred.indirectHits                174                       # Number of indirect target hits.
system.cpu.branchPred.indirectMisses              198                       # Number of indirect misses.
system.cpu.branchPred.indirectMispredicted          102                       # Number of mispredicted indirect branches.
system.cpu.dcache.demand_hits::.cpu.data     45805735                       # number of demand (read+write) hits
system.cpu.dcache.demand_hits::total         45805735                       # number of demand (read+write) hits
system.cpu.dcache.overall_hits::.cpu.data     45805770                       # number of overall hits
system.cpu.dcache.overall_hits::total        45805770                       # number of overall hits
system.cpu.dcache.demand_misses::.cpu.data      2989478                       # number of demand (read+write) misses
system.cpu.dcache.demand_misses::total        2989478                       # number of demand (read+write) misses
system.cpu.dcache.overall_misses::.cpu.data      2989495                       # number of overall misses
system.cpu.dcache.overall_misses::total       2989495                       # number of overall misses
system.cpu.dcache.demand_miss_latency::.cpu.data 260953260758                       # number of demand (read+write) miss cycles
system.cpu.dcache.demand_miss_latency::total 260953260758                       # number of demand (read+write) miss cycles
system.cpu.dcache.overall_miss_latency::.cpu.data 260953260758                       # number of overall miss cycles
system.cpu.dcache.overall_miss_latency::total 260953260758                       # number of overall miss cycles
system.cpu.dcache.demand_accesses::.cpu.data     48795213                       # number of demand (read+write) accesses
system.cpu.dcache.demand_accesses::total     48795213                       # number of demand (read+write) accesses
system.cpu.dcache.overall_accesses::.cpu.data     48795265                       # number of overall (read+write) accesses
system.cpu.dcache.overall_accesses::total     48795265                       # number of overall (read+write) accesses
system.cpu.dcache.demand_miss_rate::.cpu.data     0.061266                       # miss rate for demand accesses
system.cpu.dcache.demand_miss_rate::total     0.061266                       # miss rate for demand accesses
system.cpu.dcache.overall_miss_rate::.cpu.data     0.061266                       # miss rate for overall accesses
system.cpu.dcache.overall_miss_rate::total     0.061266                       # miss rate for overall accesses
system.cpu.dcache.demand_avg_miss_latency::.cpu.data 87290.577404                       # average overall miss latency
system.cpu.dcache.demand_avg_miss_latency::total 87290.577404                       # average overall miss latency
system.cpu.dcache.overall_avg_miss_latency::.cpu.data 87290.081020                       # average overall miss latency
system.cpu.dcache.overall_avg_miss_latency::total 87290.081020                       # average overall miss latency
system.cpu.dcache.blocked_cycles::no_mshrs            0                       # number of cycles access was blocked
system.cpu.dcache.blocked_cycles::no_targets            0                       # number of cycles access was blocked
system.cpu.dcache.blocked::no_mshrs                 0                       # number of cycles access was blocked
system.cpu.dcache.blocked::no_targets               0                       # number of cycles access was blocked
system.cpu.dcache.avg_blocked_cycles::no_mshrs          nan                       # average number of cycles each access was blocked
system.cpu.dcache.avg_blocked_cycles::no_targets          nan                       # average number of cycles each access was blocked
system.cpu.dcache.writebacks::.writebacks      1492733                       # number of writebacks
system.cpu.dcache.writebacks::total           1492733                       # number of writebacks
system.cpu.dcache.demand_mshr_hits::.cpu.data      1491698                       # number of demand (read+write) MSHR hits
system.cpu.dcache.demand_mshr_hits::total      1491698                       # number of demand (read+write) MSHR hits
system.cpu.dcache.overall_mshr_hits::.cpu.data      1491698                       # number of overall MSHR hits
system.cpu.dcache.overall_mshr_hits::total      1491698                       # number of overall MSHR hits
system.cpu.dcache.demand_mshr_misses::.cpu.data      1497780                       # number of demand (read+write) MSHR misses
system.cpu.dcache.demand_mshr_misses::total      1497780                       # number of demand (read+write) MSHR misses
system.cpu.dcache.overall_mshr_misses::.cpu.data      1497794                       # number of overall MSHR misses
system.cpu.dcache.overall_mshr_misses::total      1497794                       # number of overall MSHR misses
system.cpu.dcache.demand_mshr_miss_latency::.cpu.data 133857375907                       # number of demand (read+write) MSHR miss cycles
system.cpu.dcache.demand_mshr_miss_latency::total 133857375907                       # number of demand (read+write) MSHR miss cycles
system.cpu.dcache.overall_mshr_miss_latency::.cpu.data 133858734586                       # number of overall MSHR miss cycles
system.cpu.dcache.overall_mshr_miss_latency::total 133858734586                       # number of overall MSHR miss cycles
system.cpu.dcache.demand_mshr_miss_rate::.cpu.data     0.030695                       # mshr miss rate for demand accesses
system.cpu.dcache.demand_mshr_miss_rate::total     0.030695                       # mshr miss rate for demand accesses
system.cpu.dcache.overall_mshr_miss_rate::.cpu.data     0.030695                       # mshr miss rate for overall accesses
system.cpu.dcache.overall_mshr_miss_rate::total     0.030695                       # mshr miss rate for overall accesses
system.cpu.dcache.demand_avg_mshr_miss_latency::.cpu.data 89370.518973                       # average overall mshr miss latency
system.cpu.dcache.demand_avg_mshr_miss_latency::total 89370.518973                       # average overall mshr miss latency
system.cpu.dcache.overall_avg_mshr_miss_latency::.cpu.data 89370.590739                       # average overall mshr miss latency
system.cpu.dcache.overall_avg_mshr_miss_latency::total 89370.590739                       # average overall mshr miss latency
system.cpu.dcache.replacements                1495746                       # number of replacements
system.cpu.dcache.ReadReq_hits::.cpu.data     35696752                       # number of ReadReq hits
system.cpu.dcache.ReadReq_hits::total        35696752                       # number of ReadReq hits
system.cpu.dcache.ReadReq_misses::.cpu.data         5927                       # number of ReadReq misses
system.cpu.dcache.ReadReq_misses::total          5927                       # number of ReadReq misses
system.cpu.dcache.ReadReq_miss_latency::.cpu.data    185776842                       # number of ReadReq miss cycles
system.cpu.dcache.ReadReq_miss_latency::total    185776842                       # number of ReadReq miss cycles
system.cpu.dcache.ReadReq_accesses::.cpu.data     35702679                       # number of ReadReq accesses(hits+misses)
system.cpu.dcache.ReadReq_accesses::total     35702679                       # number of ReadReq accesses(hits+misses)
system.cpu.dcache.ReadReq_miss_rate::.cpu.data     0.000166                       # miss rate for ReadReq accesses
system.cpu.dcache.ReadReq_miss_rate::total     0.000166                       # miss rate for ReadReq accesses
system.cpu.dcache.ReadReq_avg_miss_latency::.cpu.data 31344.160958                       # average ReadReq miss latency
system.cpu.dcache.ReadReq_avg_miss_latency::total 31344.160958                       # average ReadReq miss latency
system.cpu.dcache.ReadReq_mshr_hits::.cpu.data            6                       # number of ReadReq MSHR hits
system.cpu.dcache.ReadReq_mshr_hits::total            6                       # number of ReadReq MSHR hits
system.cpu.dcache.ReadReq_mshr_misses::.cpu.data         5921                       # number of ReadReq MSHR misses
system.cpu.dcache.ReadReq_mshr_misses::total         5921                       # number of ReadReq MSHR misses
system.cpu.dcache.ReadReq_mshr_miss_latency::.cpu.data    177442010                       # number of ReadReq MSHR miss cycles
system.cpu.dcache.ReadReq_mshr_miss_latency::total    177442010                       # number of ReadReq MSHR miss cycles
system.cpu.dcache.ReadReq_mshr_miss_rate::.cpu.data     0.000166                       # mshr miss rate for ReadReq accesses
system.cpu.dcache.ReadReq_mshr_miss_rate::total     0.000166                       # mshr miss rate for ReadReq accesses
system.cpu.dcache.ReadReq_avg_mshr_miss_latency::.cpu.data 29968.250296                       # average ReadReq mshr miss latency
system.cpu.dcache.ReadReq_avg_mshr_miss_latency::total 29968.250296                       # average ReadReq mshr miss latency
system.cpu.dcache.WriteReq_hits::.cpu.data     10108983                       # number of WriteReq hits
system.cpu.dcache.WriteReq_hits::total       10108983                       # number of WriteReq hits
system.cpu.dcache.WriteReq_misses::.cpu.data      2983551                       # number of WriteReq misses
system.cpu.dcache.WriteReq_misses::total      2983551                       # number of WriteReq misses
system.cpu.dcache.WriteReq_miss_latency::.cpu.data 260767483916                       # number of WriteReq miss cycles
system.cpu.dcache.WriteReq_miss_latency::total 260767483916                       # number of WriteReq miss cycles
system.cpu.dcache.WriteReq_accesses::.cpu.data     13092534                       # number of WriteReq accesses(hits+misses)
system.cpu.dcache.WriteReq_accesses::total     13092534                       # number of WriteReq accesses(hits+misses)
system.cpu.dcache.WriteReq_miss_rate::.cpu.data     0.227882                       # miss rate for WriteReq accesses
system.cpu.dcache.WriteReq_miss_rate::total     0.227882                       # miss rate for WriteReq accesses
system.cpu.dcache.WriteReq_avg_miss_latency::.cpu.data 87401.718260                       # average WriteReq miss latency
system.cpu.dcache.WriteReq_avg_miss_latency::total 87401.718260                       # average WriteReq miss latency
system.cpu.dcache.WriteReq_mshr_hits::.cpu.data      1491692                       # number of WriteReq MSHR hits
system.cpu.dcache.WriteReq_mshr_hits::total      1491692                       # number of WriteReq MSHR hits
system.cpu.dcache.WriteReq_mshr_misses::.cpu.data      1491859                       # number of WriteReq MSHR misses
system.cpu.dcache.WriteReq_mshr_misses::total      1491859                       # number of WriteReq MSHR misses
system.cpu.dcache.WriteReq_mshr_miss_latency::.cpu.data 133679933897                       # number of WriteReq MSHR miss cycles
system.cpu.dcache.WriteReq_mshr_miss_latency::total 133679933897                       # number of WriteReq MSHR miss cycles
system.cpu.dcache.WriteReq_mshr_miss_rate::.cpu.data     0.113947                       # mshr miss rate for WriteReq accesses
system.cpu.dcache.WriteReq_mshr_miss_rate::total     0.113947                       # mshr miss rate for WriteReq accesses
system.cpu.dcache.WriteReq_avg_mshr_miss_latency::.cpu.data 89606.279077                       # average WriteReq mshr miss latency
system.cpu.dcache.WriteReq_avg_mshr_miss_latency::total 89606.279077                       # average WriteReq mshr miss latency
system.cpu.dcache.SoftPFReq_hits::.cpu.data           35                       # number of SoftPFReq hits
system.cpu.dcache.SoftPFReq_hits::total            35                       # number of SoftPFReq hits
system.cpu.dcache.SoftPFReq_misses::.cpu.data           17                       # number of SoftPFReq misses
system.cpu.dcache.SoftPFReq_misses::total           17                       # number of SoftPFReq misses
system.cpu.dcache.SoftPFReq_accesses::.cpu.data           52                       # number of SoftPFReq accesses(hits+misses)
system.cpu.dcache.SoftPFReq_accesses::total           52                       # number of SoftPFReq accesses(hits+misses)
system.cpu.dcache.SoftPFReq_miss_rate::.cpu.data     0.326923                       # miss rate for SoftPFReq accesses
system.cpu.dcache.SoftPFReq_miss_rate::total     0.326923                       # miss rate for SoftPFReq accesses
system.cpu.dcache.SoftPFReq_mshr_misses::.cpu.data           14                       # number of SoftPFReq MSHR misses
system.cpu.dcache.SoftPFReq_mshr_misses::total           14                       # number of SoftPFReq MSHR misses
system.cpu.dcache.SoftPFReq_mshr_miss_latency::.cpu.data      1358679                       # number of SoftPFReq MSHR miss cycles
system.cpu.dcache.SoftPFReq_mshr_miss_latency::total      1358679                       # number of SoftPFReq MSHR miss cycles
system.cpu.dcache.SoftPFReq_mshr_miss_rate::.cpu.data     0.269231                       # mshr miss rate for SoftPFReq accesses
system.cpu.dcache.SoftPFReq_mshr_miss_rate::total     0.269231                       # mshr miss rate for SoftPFReq accesses
system.cpu.dcache.SoftPFReq_avg_mshr_miss_latency::.cpu.data 97048.500000                       # average SoftPFReq mshr miss latency
system.cpu.dcache.SoftPFReq_avg_mshr_miss_latency::total 97048.500000                       # average SoftPFReq mshr miss latency
system.cpu.dcache.LoadLockedReq_hits::.cpu.data           14                       # number of LoadLockedReq hits
system.cpu.dcache.LoadLockedReq_hits::total           14                       # number of LoadLockedReq hits
system.cpu.dcache.LoadLockedReq_accesses::.cpu.data           14                       # number of LoadLockedReq accesses(hits+misses)
system.cpu.dcache.LoadLockedReq_accesses::total           14                       # number of LoadLockedReq accesses(hits+misses)
system.cpu.dcache.StoreCondReq_hits::.cpu.data           14                       # number of StoreCondReq hits
system.cpu.dcache.StoreCondReq_hits::total           14                       # number of StoreCondReq hits
system.cpu.dcache.StoreCondReq_accesses::.cpu.data           14                       # number of StoreCondReq accesses(hits+misses)
system.cpu.dcache.StoreCondReq_accesses::total           14                       # number of StoreCondReq accesses(hits+misses)
system.cpu.dcache.power_state.pwrStateResidencyTicks::UNDEFINED 205421287314                       # Cumulative time (in ticks) in various power states
system.cpu.dcache.tags.tagsinuse          2046.178256                       # Cycle average of tags in use
system.cpu.dcache.tags.total_refs            47303592                       # Total number of references to valid blocks.
system.cpu.dcache.tags.sampled_refs           1497794                       # Sample count of references to valid blocks.
system.cpu.dcache.tags.avg_refs             31.582175                       # Average number of references to valid blocks.
system.cpu.dcache.tags.warmup_cycle            192096                       # Cycle when the warmup percentage was hit.
system.cpu.dcache.tags.occ_blocks::.cpu.data  2046.178256                       # Average occupied blocks per requestor
system.cpu.dcache.tags.occ_percent::.cpu.data     0.999110                       # Average percentage of cache occupancy
system.cpu.dcache.tags.occ_percent::total     0.999110                       # Average percentage of cache occupancy
system.cpu.dcache.tags.occ_task_id_blocks::1024         2048                       # Occupied blocks per task id
system.cpu.dcache.tags.age_task_id_blocks_1024::0           73                       # Occupied blocks per task id
system.cpu.dcache.tags.age_task_id_blocks_1024::1          650                       # Occupied blocks per task id
system.cpu.dcache.tags.age_task_id_blocks_1024::2         1325                       # Occupied blocks per task id
system.cpu.dcache.tags.occ_task_id_percent::1024            1                       # Percentage of cache occupancy per task id
system.cpu.dcache.tags.tag_accesses          50293087                       # Number of tag accesses
system.cpu.dcache.tags.data_accesses         50293087                       # Number of data accesses
system.cpu.dcache.tags.power_state.pwrStateResidencyTicks::UNDEFINED 205421287314                       # Cumulative time (in ticks) in various power states
system.cpu.dtb.instHits                             0                       # ITB inst hits
system.cpu.dtb.instMisses                           0                       # ITB inst misses
system.cpu.dtb.readHits                             0                       # DTB read hits
system.cpu.dtb.readMisses                           0                       # DTB read misses
system.cpu.dtb.writeHits                            0                       # DTB write hits
system.cpu.dtb.writeMisses                          0                       # DTB write misses
system.cpu.dtb.inserts                              0                       # Number of times an entry is inserted into the TLB
system.cpu.dtb.flushTlb                             0                       # Number of times complete TLB was flushed
system.cpu.dtb.flushTlbMva                          0                       # Number of times TLB was flushed by MVA
system.cpu.dtb.flushTlbMvaAsid                      0                       # Number of times TLB was flushed by MVA & ASID
system.cpu.dtb.flushTlbAsid                         0                       # Number of times TLB was flushed by ASID
system.cpu.dtb.flushedEntries                       0                       # Number of entries that have been flushed from TLB
system.cpu.dtb.alignFaults                          0                       # Number of TLB faults due to alignment restrictions
system.cpu.dtb.prefetchFaults                       0                       # Number of TLB faults due to prefetch
system.cpu.dtb.domainFaults                         0                       # Number of TLB faults due to domain restrictions
system.cpu.dtb.permsFaults                          0                       # Number of TLB faults due to permissions restrictions
system.cpu.dtb.readAccesses                         0                       # DTB read accesses
system.cpu.dtb.writeAccesses                        0                       # DTB write accesses
system.cpu.dtb.instAccesses                         0                       # ITB inst accesses
system.cpu.dtb.hits                                 0                       # Total TLB (inst and data) hits
system.cpu.dtb.misses                               0                       # Total TLB (inst and data) misses
system.cpu.dtb.accesses                             0                       # Total TLB (inst and data) accesses
system.cpu.dtb.stage2_mmu.stage2_tlb.instHits            0                       # ITB inst hits
system.cpu.dtb.stage2_mmu.stage2_tlb.instMisses            0                       # ITB inst misses
system.cpu.dtb.stage2_mmu.stage2_tlb.readHits            0                       # DTB read hits
system.cpu.dtb.stage2_mmu.stage2_tlb.readMisses            0                       # DTB read misses
system.cpu.dtb.stage2_mmu.stage2_tlb.writeHits            0                       # DTB write hits
system.cpu.dtb.stage2_mmu.stage2_tlb.writeMisses            0                       # DTB write misses
system.cpu.dtb.stage2_mmu.stage2_tlb.inserts            0                       # Number of times an entry is inserted into the TLB
system.cpu.dtb.stage2_mmu.stage2_tlb.flushTlb            0                       # Number of times complete TLB was flushed
system.cpu.dtb.stage2_mmu.stage2_tlb.flushTlbMva            0                       # Number of times TLB was flushed by MVA
system.cpu.dtb.stage2_mmu.stage2_tlb.flushTlbMvaAsid            0                       # Number of times TLB was flushed by MVA & ASID
system.cpu.dtb.stage2_mmu.stage2_tlb.flushTlbAsid            0                       # Number of times TLB was flushed by ASID
system.cpu.dtb.stage2_mmu.stage2_tlb.flushedEntries            0                       # Number of entries that have been flushed from TLB
system.cpu.dtb.stage2_mmu.stage2_tlb.alignFaults            0                       # Number of TLB faults due to alignment restrictions
system.cpu.dtb.stage2_mmu.stage2_tlb.prefetchFaults            0                       # Number of TLB faults due to prefetch
system.cpu.dtb.stage2_mmu.stage2_tlb.domainFaults            0                       # Number of TLB faults due to domain restrictions
system.cpu.dtb.stage2_mmu.stage2_tlb.permsFaults            0                       # Number of TLB faults due to permissions restrictions
system.cpu.dtb.stage2_mmu.stage2_tlb.readAccesses            0                       # DTB read accesses
system.cpu.dtb.stage2_mmu.stage2_tlb.writeAccesses            0                       # DTB write accesses
system.cpu.dtb.stage2_mmu.stage2_tlb.instAccesses            0                       # ITB inst accesses
system.cpu.dtb.stage2_mmu.stage2_tlb.hits            0                       # Total TLB (inst and data) hits
system.cpu.dtb.stage2_mmu.stage2_tlb.misses            0                       # Total TLB (inst and data) misses
system.cpu.dtb.stage2_mmu.stage2_tlb.accesses            0                       # Total TLB (inst and data) accesses
system.cpu.dtb.stage2_mmu.stage2_tlb.walker.walks            0                       # Table walker walks requested
system.cpu.dtb.stage2_mmu.stage2_tlb.walker.requestOrigin_Requested::Data            0                       # Table walker requests started/completed, data/inst
system.cpu.dtb.stage2_mmu.stage2_tlb.walker.requestOrigin_Requested::Inst            0                       # Table walker requests started/completed, data/inst
system.cpu.dtb.stage2_mmu.stage2_tlb.walker.requestOrigin_Requested::total            0                       # Table walker requests started/completed, data/inst
system.cpu.dtb.stage2_mmu.stage2_tlb.walker.requestOrigin_Completed::Data            0                       # Table walker requests started/completed, data/inst
system.cpu.dtb.stage2_mmu.stage2_tlb.walker.requestOrigin_Completed::Inst            0                       # Table walker requests started/completed, data/inst
system.cpu.dtb.stage2_mmu.stage2_tlb.walker.requestOrigin_Completed::total            0                       # Table walker requests started/completed, data/inst
system.cpu.dtb.stage2_mmu.stage2_tlb.walker.requestOrigin::total            0                       # Table walker requests started/completed, data/inst
system.cpu.dtb.stage2_mmu.stage2_tlb.walker.power_state.pwrStateResidencyTicks::UNDEFINED 205421287314                       # Cumulative time (in ticks) in various power states
system.cpu.dtb.walker.walks                         0                       # Table walker walks requested
system.cpu.dtb.walker.requestOrigin_Requested::Data            0                       # Table walker requests started/completed, data/inst
system.cpu.dtb.walker.requestOrigin_Requested::Inst            0                       # Table walker requests started/completed, data/inst
system.cpu.dtb.walker.requestOrigin_Requested::total            0                       # Table walker requests started/completed, data/inst
system.cpu.dtb.walker.requestOrigin_Completed::Data            0                       # Table walker requests started/completed, data/inst
system.cpu.dtb.walker.requestOrigin_Completed::Inst            0                       # Table walker requests started/completed, data/inst
system.cpu.dtb.walker.requestOrigin_Completed::total            0                       # Table walker requests started/completed, data/inst
system.cpu.dtb.walker.requestOrigin::total            0                       # Table walker requests started/completed, data/inst
system.cpu.dtb.walker.power_state.pwrStateResidencyTicks::UNDEFINED 205421287314                       # Cumulative time (in ticks) in various power states
system.cpu.fetch2.intInstructions            49669806                       # Number of integer instructions successfully decoded
system.cpu.fetch2.fpInstructions                    0                       # Number of floating point instructions successfully decoded
system.cpu.fetch2.vecInstructions                   0                       # Number of SIMD instructions successfully decoded
system.cpu.fetch2.loadInstructions           37092338                       # Number of memory load instructions successfully decoded
system.cpu.fetch2.storeInstructions          13161144                       # Number of memory store instructions successfully decoded
system.cpu.fetch2.amoInstructions                   0                       # Number of memory atomic instructions successfully decoded
system.cpu.icache.demand_hits::.cpu.inst      6046144                       # number of demand (read+write) hits
system.cpu.icache.demand_hits::total          6046144                       # number of demand (read+write) hits
system.cpu.icache.overall_hits::.cpu.inst      6046144                       # number of overall hits
system.cpu.icache.overall_hits::total         6046144                       # number of overall hits
system.cpu.icache.demand_misses::.cpu.inst          520                       # number of demand (read+write) misses
system.cpu.icache.demand_misses::total            520                       # number of demand (read+write) misses
system.cpu.icache.overall_misses::.cpu.inst          520                       # number of overall misses
system.cpu.icache.overall_misses::total           520                       # number of overall misses
system.cpu.icache.demand_miss_latency::.cpu.inst     43915947                       # number of demand (read+write) miss cycles
system.cpu.icache.demand_miss_latency::total     43915947                       # number of demand (read+write) miss cycles
system.cpu.icache.overall_miss_latency::.cpu.inst     43915947                       # number of overall miss cycles
system.cpu.icache.overall_miss_latency::total     43915947                       # number of overall miss cycles
system.cpu.icache.demand_accesses::.cpu.inst      6046664                       # number of demand (read+write) accesses
system.cpu.icache.demand_accesses::total      6046664                       # number of demand (read+write) accesses
system.cpu.icache.overall_accesses::.cpu.inst      6046664                       # number of overall (read+write) accesses
system.cpu.icache.overall_accesses::total      6046664                       # number of overall (read+write) accesses
system.cpu.icache.demand_miss_rate::.cpu.inst     0.000086                       # miss rate for demand accesses
system.cpu.icache.demand_miss_rate::total     0.000086                       # miss rate for demand accesses
system.cpu.icache.overall_miss_rate::.cpu.inst     0.000086                       # miss rate for overall accesses
system.cpu.icache.overall_miss_rate::total     0.000086                       # miss rate for overall accesses
system.cpu.icache.demand_avg_miss_latency::.cpu.inst 84453.744231                       # average overall miss latency
system.cpu.icache.demand_avg_miss_latency::total 84453.744231                       # average overall miss latency
system.cpu.icache.overall_avg_miss_latency::.cpu.inst 84453.744231                       # average overall miss latency
system.cpu.icache.overall_avg_miss_latency::total 84453.744231                       # average overall miss latency
system.cpu.icache.blocked_cycles::no_mshrs            0                       # number of cycles access was blocked
system.cpu.icache.blocked_cycles::no_targets            0                       # number of cycles access was blocked
system.cpu.icache.blocked::no_mshrs                 0                       # number of cycles access was blocked
system.cpu.icache.blocked::no_targets               0                       # number of cycles access was blocked
system.cpu.icache.avg_blocked_cycles::no_mshrs          nan                       # average number of cycles each access was blocked
system.cpu.icache.avg_blocked_cycles::no_targets          nan                       # average number of cycles each access was blocked
system.cpu.icache.writebacks::.writebacks           32                       # number of writebacks
system.cpu.icache.writebacks::total                32                       # number of writebacks
system.cpu.icache.demand_mshr_misses::.cpu.inst          520                       # number of demand (read+write) MSHR misses
system.cpu.icache.demand_mshr_misses::total          520                       # number of demand (read+write) MSHR misses
system.cpu.icache.overall_mshr_misses::.cpu.inst          520                       # number of overall MSHR misses
system.cpu.icache.overall_mshr_misses::total          520                       # number of overall MSHR misses
system.cpu.icache.demand_mshr_miss_latency::.cpu.inst     43222267                       # number of demand (read+write) MSHR miss cycles
system.cpu.icache.demand_mshr_miss_latency::total     43222267                       # number of demand (read+write) MSHR miss cycles
system.cpu.icache.overall_mshr_miss_latency::.cpu.inst     43222267                       # number of overall MSHR miss cycles
system.cpu.icache.overall_mshr_miss_latency::total     43222267                       # number of overall MSHR miss cycles
system.cpu.icache.demand_mshr_miss_rate::.cpu.inst     0.000086                       # mshr miss rate for demand accesses
system.cpu.icache.demand_mshr_miss_rate::total     0.000086                       # mshr miss rate for demand accesses
system.cpu.icache.overall_mshr_miss_rate::.cpu.inst     0.000086                       # mshr miss rate for overall accesses
system.cpu.icache.overall_mshr_miss_rate::total     0.000086                       # mshr miss rate for overall accesses
system.cpu.icache.demand_avg_mshr_miss_latency::.cpu.inst 83119.744231                       # average overall mshr miss latency
system.cpu.icache.demand_avg_mshr_miss_latency::total 83119.744231                       # average overall mshr miss latency
system.cpu.icache.overall_avg_mshr_miss_latency::.cpu.inst 83119.744231                       # average overall mshr miss latency
system.cpu.icache.overall_avg_mshr_miss_latency::total 83119.744231                       # average overall mshr miss latency
system.cpu.icache.replacements                     32                       # number of replacements
system.cpu.icache.ReadReq_hits::.cpu.inst      6046144                       # number of ReadReq hits
system.cpu.icache.ReadReq_hits::total         6046144                       # number of ReadReq hits
system.cpu.icache.ReadReq_misses::.cpu.inst          520                       # number of ReadReq misses
system.cpu.icache.ReadReq_misses::total           520                       # number of ReadReq misses
system.cpu.icache.ReadReq_miss_latency::.cpu.inst     43915947                       # number of ReadReq miss cycles
system.cpu.icache.ReadReq_miss_latency::total     43915947                       # number of ReadReq miss cycles
system.cpu.icache.ReadReq_accesses::.cpu.inst      6046664                       # number of ReadReq accesses(hits+misses)
system.cpu.icache.ReadReq_accesses::total      6046664                       # number of ReadReq accesses(hits+misses)
system.cpu.icache.ReadReq_miss_rate::.cpu.inst     0.000086                       # miss rate for ReadReq accesses
system.cpu.icache.ReadReq_miss_rate::total     0.000086                       # miss rate for ReadReq accesses
system.cpu.icache.ReadReq_avg_miss_latency::.cpu.inst 84453.744231                       # average ReadReq miss latency
system.cpu.icache.ReadReq_avg_miss_latency::total 84453.744231                       # average ReadReq miss latency
system.cpu.icache.ReadReq_mshr_misses::.cpu.inst          520                       # number of ReadReq MSHR misses
system.cpu.icache.ReadReq_mshr_misses::total          520                       # number of ReadReq MSHR misses
system.cpu.icache.ReadReq_mshr_miss_latency::.cpu.inst     43222267                       # number of ReadReq MSHR miss cycles
system.cpu.icache.ReadReq_mshr_miss_latency::total     43222267                       # number of ReadReq MSHR miss cycles
system.cpu.icache.ReadReq_mshr_miss_rate::.cpu.inst     0.000086                       # mshr miss rate for ReadReq accesses
system.cpu.icache.ReadReq_mshr_miss_rate::total     0.000086                       # mshr miss rate for ReadReq accesses
system.cpu.icache.ReadReq_avg_mshr_miss_latency::.cpu.inst 83119.744231                       # average ReadReq mshr miss latency
system.cpu.icache.ReadReq_avg_mshr_miss_latency::total 83119.744231                       # average ReadReq mshr miss latency
system.cpu.icache.power_state.pwrStateResidencyTicks::UNDEFINED 205421287314                       # Cumulative time (in ticks) in various power states
system.cpu.icache.tags.tagsinuse           487.924368                       # Cycle average of tags in use
system.cpu.icache.tags.total_refs             6046664                       # Total number of references to valid blocks.
system.cpu.icache.tags.sampled_refs               520                       # Sample count of references to valid blocks.
system.cpu.icache.tags.avg_refs          11628.200000                       # Average number of references to valid blocks.
system.cpu.icache.tags.warmup_cycle             94047                       # Cycle when the warmup percentage was hit.
system.cpu.icache.tags.occ_blocks::.cpu.inst   487.924368                       # Average occupied blocks per requestor
system.cpu.icache.tags.occ_percent::.cpu.inst     0.238244                       # Average percentage of cache occupancy
system.cpu.icache.tags.occ_percent::total     0.238244                       # Average percentage of cache occupancy
system.cpu.icache.tags.occ_task_id_blocks::1024          488                       # Occupied blocks per task id
system.cpu.icache.tags.age_task_id_blocks_1024::4          488                       # Occupied blocks per task id
system.cpu.icache.tags.occ_task_id_percent::1024     0.238281                       # Percentage of cache occupancy per task id
system.cpu.icache.tags.tag_accesses           6047184                       # Number of tag accesses
system.cpu.icache.tags.data_accesses          6047184                       # Number of data accesses
system.cpu.icache.tags.power_state.pwrStateResidencyTicks::UNDEFINED 205421287314                       # Cumulative time (in ticks) in various power states
system.cpu.itb.instHits                             0                       # ITB inst hits
system.cpu.itb.instMisses                           0                       # ITB inst misses
system.cpu.itb.readHits                             0                       # DTB read hits
system.cpu.itb.readMisses                           0                       # DTB read misses
system.cpu.itb.writeHits                            0                       # DTB write hits
system.cpu.itb.writeMisses                          0                       # DTB write misses
system.cpu.itb.inserts                              0                       # Number of times an entry is inserted into the TLB
system.cpu.itb.flushTlb                             0                       # Number of times complete TLB was flushed
system.cpu.itb.flushTlbMva                          0                       # Number of times TLB was flushed by MVA
system.cpu.itb.flushTlbMvaAsid                      0                       # Number of times TLB was flushed by MVA & ASID
system.cpu.itb.flushTlbAsid                         0                       # Number of times TLB was flushed by ASID
system.cpu.itb.flushedEntries                       0                       # Number of entries that have been flushed from TLB
system.cpu.itb.alignFaults                          0                       # Number of TLB faults due to alignment restrictions
system.cpu.itb.prefetchFaults                       0                       # Number of TLB faults due to prefetch
system.cpu.itb.domainFaults                         0                       # Number of TLB faults due to domain restrictions
system.cpu.itb.permsFaults                          0                       # Number of TLB faults due to permissions restrictions
system.cpu.itb.readAccesses                         0                       # DTB read accesses
system.cpu.itb.writeAccesses                        0                       # DTB write accesses
system.cpu.itb.instAccesses                         0                       # ITB inst accesses
system.cpu.itb.hits                                 0                       # Total TLB (inst and data) hits
system.cpu.itb.misses                               0                       # Total TLB (inst and data) misses
system.cpu.itb.accesses                             0                       # Total TLB (inst and data) accesses
system.cpu.itb.stage2_mmu.stage2_tlb.instHits            0                       # ITB inst hits
system.cpu.itb.stage2_mmu.stage2_tlb.instMisses            0                       # ITB inst misses
system.cpu.itb.stage2_mmu.stage2_tlb.readHits            0                       # DTB read hits
system.cpu.itb.stage2_mmu.stage2_tlb.readMisses            0                       # DTB read misses
system.cpu.itb.stage2_mmu.stage2_tlb.writeHits            0                       # DTB write hits
system.cpu.itb.stage2_mmu.stage2_tlb.writeMisses            0                       # DTB write misses
system.cpu.itb.stage2_mmu.stage2_tlb.inserts            0                       # Number of times an entry is inserted into the TLB
system.cpu.itb.stage2_mmu.stage2_tlb.flushTlb            0                       # Number of times complete TLB was flushed
system.cpu.itb.stage2_mmu.stage2_tlb.flushTlbMva            0                       # Number of times TLB was flushed by MVA
system.cpu.itb.stage2_mmu.stage2_tlb.flushTlbMvaAsid            0                       # Number of times TLB was flushed by MVA & ASID
system.cpu.itb.stage2_mmu.stage2_tlb.flushTlbAsid            0                       # Number of times TLB was flushed by ASID
system.cpu.itb.stage2_mmu.stage2_tlb.flushedEntries            0                       # Number of entries that have been flushed from TLB
system.cpu.itb.stage2_mmu.stage2_tlb.alignFaults            0                       # Number of TLB faults due to alignment restrictions
system.cpu.itb.stage2_mmu.stage2_tlb.prefetchFaults            0                       # Number of TLB faults due to prefetch
system.cpu.itb.stage2_mmu.stage2_tlb.domainFaults            0                       # Number of TLB faults due to domain restrictions
system.cpu.itb.stage2_mmu.stage2_tlb.permsFaults            0                       # Number of TLB faults due to permissions restrictions
system.cpu.itb.stage2_mmu.stage2_tlb.readAccesses            0                       # DTB read accesses
system.cpu.itb.stage2_mmu.stage2_tlb.writeAccesses            0                       # DTB write accesses
system.cpu.itb.stage2_mmu.stage2_tlb.instAccesses            0                       # ITB inst accesses
system.cpu.itb.stage2_mmu.stage2_tlb.hits            0                       # Total TLB (inst and data) hits
system.cpu.itb.stage2_mmu.stage2_tlb.misses            0                       # Total TLB (inst and data) misses
system.cpu.itb.stage2_mmu.stage2_tlb.accesses            0                       # Total TLB (inst and data) accesses
system.cpu.itb.stage2_mmu.stage2_tlb.walker.walks            0                       # Table walker walks requested
system.cpu.itb.stage2_mmu.stage2_tlb.walker.requestOrigin_Requested::Data            0                       # Table walker requests started/completed, data/inst
system.cpu.itb.stage2_mmu.stage2_tlb.walker.requestOrigin_Requested::Inst            0                       # Table walker requests started/completed, data/inst
system.cpu.itb.stage2_mmu.stage2_tlb.walker.requestOrigin_Requested::total            0                       # Table walker requests started/completed, data/inst
system.cpu.itb.stage2_mmu.stage2_tlb.walker.requestOrigin_Completed::Data            0                       # Table walker requests started/completed, data/inst
system.cpu.itb.stage2_mmu.stage2_tlb.walker.requestOrigin_Completed::Inst            0                       # Table walker requests started/completed, data/inst
system.cpu.itb.stage2_mmu.stage2_tlb.walker.requestOrigin_Completed::total            0                       # Table walker requests started/completed, data/inst
system.cpu.itb.stage2_mmu.stage2_tlb.walker.requestOrigin::total            0                       # Table walker requests started/completed, data/inst
system.cpu.itb.stage2_mmu.stage2_tlb.walker.power_state.pwrStateResidencyTicks::UNDEFINED 205421287314                       # Cumulative time (in ticks) in various power states
system.cpu.itb.walker.walks                         0                       # Table walker walks requested
system.cpu.itb.walker.requestOrigin_Requested::Data            0                       # Table walker requests started/completed, data/inst
system.cpu.itb.walker.requestOrigin_Requested::Inst            0                       # Table walker requests started/completed, data/inst
system.cpu.itb.walker.requestOrigin_Requested::total            0                       # Table walker requests started/completed, data/inst
system.cpu.itb.walker.requestOrigin_Completed::Data            0                       # Table walker requests started/completed, data/inst
system.cpu.itb.walker.requestOrigin_Completed::Inst            0                       # Table walker requests started/completed, data/inst
system.cpu.itb.walker.requestOrigin_Completed::total            0                       # Table walker requests started/completed, data/inst
system.cpu.itb.walker.requestOrigin::total            0                       # Table walker requests started/completed, data/inst
system.cpu.itb.walker.power_state.pwrStateResidencyTicks::UNDEFINED 205421287314                       # Cumulative time (in ticks) in various power states
system.cpu.power_state.pwrStateResidencyTicks::ON 205421287314                       # Cumulative time (in ticks) in various power states
system.cpu.thread_0.numInsts                100000000                       # Number of Instructions committed
system.cpu.thread_0.numOps                  100003630                       # Number of Ops committed
system.cpu.thread_0.numMemRefs                      0                       # Number of Memory References
system.cpu_clk_domain.clock                       667                       # Clock period in ticks
system.cpu_voltage_domain.voltage                   1                       # Voltage in Volts
system.l2.demand_hits::.cpu.inst                   22                       # number of demand (read+write) hits
system.l2.demand_hits::.cpu.data                10178                       # number of demand (read+write) hits
system.l2.demand_hits::total                    10200                       # number of demand (read+write) hits
system.l2.overall_hits::.cpu.inst                  22                       # number of overall hits
system.l2.overall_hits::.cpu.data               10178                       # number of overall hits
system.l2.overall_hits::total                   10200                       # number of overall hits
system.l2.demand_misses::.cpu.inst                498                       # number of demand (read+write) misses
system.l2.demand_misses::.cpu.data            1487616                       # number of demand (read+write) misses
system.l2.demand_misses::total                1488114                       # number of demand (read+write) misses
system.l2.overall_misses::.cpu.inst               498                       # number of overall misses
system.l2.overall_misses::.cpu.data           1487616                       # number of overall misses
system.l2.overall_misses::total               1488114                       # number of overall misses
system.l2.demand_miss_latency::.cpu.inst     41856918                       # number of demand (read+write) miss cycles
system.l2.demand_miss_latency::.cpu.data 130547639199                       # number of demand (read+write) miss cycles
system.l2.demand_miss_latency::total     130589496117                       # number of demand (read+write) miss cycles
system.l2.overall_miss_latency::.cpu.inst     41856918                       # number of overall miss cycles
system.l2.overall_miss_latency::.cpu.data 130547639199                       # number of overall miss cycles
system.l2.overall_miss_latency::total    130589496117                       # number of overall miss cycles
system.l2.demand_accesses::.cpu.inst              520                       # number of demand (read+write) accesses
system.l2.demand_accesses::.cpu.data          1497794                       # number of demand (read+write) accesses
system.l2.demand_accesses::total              1498314                       # number of demand (read+write) accesses
system.l2.overall_accesses::.cpu.inst             520                       # number of overall (read+write) accesses
system.l2.overall_accesses::.cpu.data         1497794                       # number of overall (read+write) accesses
system.l2.overall_accesses::total             1498314                       # number of overall (read+write) accesses
system.l2.demand_miss_rate::.cpu.inst        0.957692                       # miss rate for demand accesses
system.l2.demand_miss_rate::.cpu.data        0.993205                       # miss rate for demand accesses
system.l2.demand_miss_rate::total            0.993192                       # miss rate for demand accesses
system.l2.overall_miss_rate::.cpu.inst       0.957692                       # miss rate for overall accesses
system.l2.overall_miss_rate::.cpu.data       0.993205                       # miss rate for overall accesses
system.l2.overall_miss_rate::total           0.993192                       # miss rate for overall accesses
system.l2.demand_avg_miss_latency::.cpu.inst 84050.036145                       # average overall miss latency
system.l2.demand_avg_miss_latency::.cpu.data 87756.275275                       # average overall miss latency
system.l2.demand_avg_miss_latency::total 87755.034975                       # average overall miss latency
system.l2.overall_avg_miss_latency::.cpu.inst 84050.036145                       # average overall miss latency
system.l2.overall_avg_miss_latency::.cpu.data 87756.275275                       # average overall miss latency
system.l2.overall_avg_miss_latency::total 87755.034975                       # average overall miss latency
system.l2.blocked_cycles::no_mshrs                  0                       # number of cycles access was blocked
system.l2.blocked_cycles::no_targets                0                       # number of cycles access was blocked
system.l2.blocked::no_mshrs                         0                       # number of cycles access was blocked
system.l2.blocked::no_targets                       0                       # number of cycles access was blocked
system.l2.avg_blocked_cycles::no_mshrs            nan                       # average number of cycles each access was blocked
system.l2.avg_blocked_cycles::no_targets          nan                       # average number of cycles each access was blocked
system.l2.writebacks::.writebacks             1454753                       # number of writebacks
system.l2.writebacks::total                   1454753                       # number of writebacks
system.l2.demand_mshr_hits::.cpu.inst               1                       # number of demand (read+write) MSHR hits
system.l2.demand_mshr_hits::.cpu.data               2                       # number of demand (read+write) MSHR hits
system.l2.demand_mshr_hits::total                   3                       # number of demand (read+write) MSHR hits
system.l2.overall_mshr_hits::.cpu.inst              1                       # number of overall MSHR hits
system.l2.overall_mshr_hits::.cpu.data              2                       # number of overall MSHR hits
system.l2.overall_mshr_hits::total                  3                       # number of overall MSHR hits
system.l2.demand_mshr_misses::.cpu.inst           497                       # number of demand (read+write) MSHR misses
system.l2.demand_mshr_misses::.cpu.data       1487614                       # number of demand (read+write) MSHR misses
system.l2.demand_mshr_misses::total           1488111                       # number of demand (read+write) MSHR misses
system.l2.overall_mshr_misses::.cpu.inst          497                       # number of overall MSHR misses
system.l2.overall_mshr_misses::.cpu.data      1487614                       # number of overall MSHR misses
system.l2.overall_mshr_misses::total          1488111                       # number of overall MSHR misses
system.l2.demand_mshr_miss_latency::.cpu.inst     35007496                       # number of demand (read+write) MSHR miss cycles
system.l2.demand_mshr_miss_latency::.cpu.data 110273455962                       # number of demand (read+write) MSHR miss cycles
system.l2.demand_mshr_miss_latency::total 110308463458                       # number of demand (read+write) MSHR miss cycles
system.l2.overall_mshr_miss_latency::.cpu.inst     35007496                       # number of overall MSHR miss cycles
system.l2.overall_mshr_miss_latency::.cpu.data 110273455962                       # number of overall MSHR miss cycles
system.l2.overall_mshr_miss_latency::total 110308463458                       # number of overall MSHR miss cycles
system.l2.demand_mshr_miss_rate::.cpu.inst     0.955769                       # mshr miss rate for demand accesses
system.l2.demand_mshr_miss_rate::.cpu.data     0.993203                       # mshr miss rate for demand accesses
system.l2.demand_mshr_miss_rate::total       0.993190                       # mshr miss rate for demand accesses
system.l2.overall_mshr_miss_rate::.cpu.inst     0.955769                       # mshr miss rate for overall accesses
system.l2.overall_mshr_miss_rate::.cpu.data     0.993203                       # mshr miss rate for overall accesses
system.l2.overall_mshr_miss_rate::total      0.993190                       # mshr miss rate for overall accesses
system.l2.demand_avg_mshr_miss_latency::.cpu.inst 70437.617706                       # average overall mshr miss latency
system.l2.demand_avg_mshr_miss_latency::.cpu.data 74127.734723                       # average overall mshr miss latency
system.l2.demand_avg_mshr_miss_latency::total 74126.502296                       # average overall mshr miss latency
system.l2.overall_avg_mshr_miss_latency::.cpu.inst 70437.617706                       # average overall mshr miss latency
system.l2.overall_avg_mshr_miss_latency::.cpu.data 74127.734723                       # average overall mshr miss latency
system.l2.overall_avg_mshr_miss_latency::total 74126.502296                       # average overall mshr miss latency
system.l2.replacements                        1455343                       # number of replacements
system.l2.WritebackDirty_hits::.writebacks      1492733                       # number of WritebackDirty hits
system.l2.WritebackDirty_hits::total          1492733                       # number of WritebackDirty hits
system.l2.WritebackDirty_accesses::.writebacks      1492733                       # number of WritebackDirty accesses(hits+misses)
system.l2.WritebackDirty_accesses::total      1492733                       # number of WritebackDirty accesses(hits+misses)
system.l2.WritebackClean_hits::.writebacks           31                       # number of WritebackClean hits
system.l2.WritebackClean_hits::total               31                       # number of WritebackClean hits
system.l2.WritebackClean_accesses::.writebacks           31                       # number of WritebackClean accesses(hits+misses)
system.l2.WritebackClean_accesses::total           31                       # number of WritebackClean accesses(hits+misses)
system.l2.ReadExReq_hits::.cpu.data              4356                       # number of ReadExReq hits
system.l2.ReadExReq_hits::total                  4356                       # number of ReadExReq hits
system.l2.ReadExReq_misses::.cpu.data         1487503                       # number of ReadExReq misses
system.l2.ReadExReq_misses::total             1487503                       # number of ReadExReq misses
system.l2.ReadExReq_miss_latency::.cpu.data 130537826962                       # number of ReadExReq miss cycles
system.l2.ReadExReq_miss_latency::total  130537826962                       # number of ReadExReq miss cycles
system.l2.ReadExReq_accesses::.cpu.data       1491859                       # number of ReadExReq accesses(hits+misses)
system.l2.ReadExReq_accesses::total           1491859                       # number of ReadExReq accesses(hits+misses)
system.l2.ReadExReq_miss_rate::.cpu.data     0.997080                       # miss rate for ReadExReq accesses
system.l2.ReadExReq_miss_rate::total         0.997080                       # miss rate for ReadExReq accesses
system.l2.ReadExReq_avg_miss_latency::.cpu.data 87756.345340                       # average ReadExReq miss latency
system.l2.ReadExReq_avg_miss_latency::total 87756.345340                       # average ReadExReq miss latency
system.l2.ReadExReq_mshr_misses::.cpu.data      1487503                       # number of ReadExReq MSHR misses
system.l2.ReadExReq_mshr_misses::total        1487503                       # number of ReadExReq MSHR misses
system.l2.ReadExReq_mshr_miss_latency::.cpu.data 110265299187                       # number of ReadExReq MSHR miss cycles
system.l2.ReadExReq_mshr_miss_latency::total 110265299187                       # number of ReadExReq MSHR miss cycles
system.l2.ReadExReq_mshr_miss_rate::.cpu.data     0.997080                       # mshr miss rate for ReadExReq accesses
system.l2.ReadExReq_mshr_miss_rate::total     0.997080                       # mshr miss rate for ReadExReq accesses
system.l2.ReadExReq_avg_mshr_miss_latency::.cpu.data 74127.782725                       # average ReadExReq mshr miss latency
system.l2.ReadExReq_avg_mshr_miss_latency::total 74127.782725                       # average ReadExReq mshr miss latency
system.l2.ReadCleanReq_hits::.cpu.inst             22                       # number of ReadCleanReq hits
system.l2.ReadCleanReq_hits::total                 22                       # number of ReadCleanReq hits
system.l2.ReadCleanReq_misses::.cpu.inst          498                       # number of ReadCleanReq misses
system.l2.ReadCleanReq_misses::total              498                       # number of ReadCleanReq misses
system.l2.ReadCleanReq_miss_latency::.cpu.inst     41856918                       # number of ReadCleanReq miss cycles
system.l2.ReadCleanReq_miss_latency::total     41856918                       # number of ReadCleanReq miss cycles
system.l2.ReadCleanReq_accesses::.cpu.inst          520                       # number of ReadCleanReq accesses(hits+misses)
system.l2.ReadCleanReq_accesses::total            520                       # number of ReadCleanReq accesses(hits+misses)
system.l2.ReadCleanReq_miss_rate::.cpu.inst     0.957692                       # miss rate for ReadCleanReq accesses
system.l2.ReadCleanReq_miss_rate::total      0.957692                       # miss rate for ReadCleanReq accesses
system.l2.ReadCleanReq_avg_miss_latency::.cpu.inst 84050.036145                       # average ReadCleanReq miss latency
system.l2.ReadCleanReq_avg_miss_latency::total 84050.036145                       # average ReadCleanReq miss latency
system.l2.ReadCleanReq_mshr_hits::.cpu.inst            1                       # number of ReadCleanReq MSHR hits
system.l2.ReadCleanReq_mshr_hits::total             1                       # number of ReadCleanReq MSHR hits
system.l2.ReadCleanReq_mshr_misses::.cpu.inst          497                       # number of ReadCleanReq MSHR misses
system.l2.ReadCleanReq_mshr_misses::total          497                       # number of ReadCleanReq MSHR misses
system.l2.ReadCleanReq_mshr_miss_latency::.cpu.inst     35007496                       # number of ReadCleanReq MSHR miss cycles
system.l2.ReadCleanReq_mshr_miss_latency::total     35007496                       # number of ReadCleanReq MSHR miss cycles
system.l2.ReadCleanReq_mshr_miss_rate::.cpu.inst     0.955769                       # mshr miss rate for ReadCleanReq accesses
system.l2.ReadCleanReq_mshr_miss_rate::total     0.955769                       # mshr miss rate for ReadCleanReq accesses
system.l2.ReadCleanReq_avg_mshr_miss_latency::.cpu.inst 70437.617706                       # average ReadCleanReq mshr miss latency
system.l2.ReadCleanReq_avg_mshr_miss_latency::total 70437.617706                       # average ReadCleanReq mshr miss latency
system.l2.ReadSharedReq_hits::.cpu.data          5822                       # number of ReadSharedReq hits
system.l2.ReadSharedReq_hits::total              5822                       # number of ReadSharedReq hits
system.l2.ReadSharedReq_misses::.cpu.data          113                       # number of ReadSharedReq misses
system.l2.ReadSharedReq_misses::total             113                       # number of ReadSharedReq misses
system.l2.ReadSharedReq_miss_latency::.cpu.data      9812237                       # number of ReadSharedReq miss cycles
system.l2.ReadSharedReq_miss_latency::total      9812237                       # number of ReadSharedReq miss cycles
system.l2.ReadSharedReq_accesses::.cpu.data         5935                       # number of ReadSharedReq accesses(hits+misses)
system.l2.ReadSharedReq_accesses::total          5935                       # number of ReadSharedReq accesses(hits+misses)
system.l2.ReadSharedReq_miss_rate::.cpu.data     0.019040                       # miss rate for ReadSharedReq accesses
system.l2.ReadSharedReq_miss_rate::total     0.019040                       # miss rate for ReadSharedReq accesses
system.l2.ReadSharedReq_avg_miss_latency::.cpu.data 86833.955752                       # average ReadSharedReq miss latency
system.l2.ReadSharedReq_avg_miss_latency::total 86833.955752                       # average ReadSharedReq miss latency
system.l2.ReadSharedReq_mshr_hits::.cpu.data            2                       # number of ReadSharedReq MSHR hits
system.l2.ReadSharedReq_mshr_hits::total            2                       # number of ReadSharedReq MSHR hits
system.l2.ReadSharedReq_mshr_misses::.cpu.data          111                       # number of ReadSharedReq MSHR misses
system.l2.ReadSharedReq_mshr_misses::total          111                       # number of ReadSharedReq MSHR misses
system.l2.ReadSharedReq_mshr_miss_latency::.cpu.data      8156775                       # number of ReadSharedReq MSHR miss cycles
system.l2.ReadSharedReq_mshr_miss_latency::total      8156775                       # number of ReadSharedReq MSHR miss cycles
system.l2.ReadSharedReq_mshr_miss_rate::.cpu.data     0.018703                       # mshr miss rate for ReadSharedReq accesses
system.l2.ReadSharedReq_mshr_miss_rate::total     0.018703                       # mshr miss rate for ReadSharedReq accesses
system.l2.ReadSharedReq_avg_mshr_miss_latency::.cpu.data 73484.459459                       # average ReadSharedReq mshr miss latency
system.l2.ReadSharedReq_avg_mshr_miss_latency::total 73484.459459                       # average ReadSharedReq mshr miss latency
system.l2.power_state.pwrStateResidencyTicks::UNDEFINED 205421287314                       # Cumulative time (in ticks) in various power states
system.l2.tags.tagsinuse                 32424.192721                       # Cycle average of tags in use
system.l2.tags.total_refs                     2991157                       # Total number of references to valid blocks.
system.l2.tags.sampled_refs                   1488111                       # Sample count of references to valid blocks.
system.l2.tags.avg_refs                      2.010036                       # Average number of references to valid blocks.
system.l2.tags.warmup_cycle                     80000                       # Cycle when the warmup percentage was hit.
system.l2.tags.occ_blocks::.cpu.inst         9.980180                       # Average occupied blocks per requestor
system.l2.tags.occ_blocks::.cpu.data     32414.212541                       # Average occupied blocks per requestor
system.l2.tags.occ_percent::.cpu.inst        0.000305                       # Average percentage of cache occupancy
system.l2.tags.occ_percent::.cpu.data        0.989203                       # Average percentage of cache occupancy
system.l2.tags.occ_percent::total            0.989508                       # Average percentage of cache occupancy
system.l2.tags.occ_task_id_blocks::1024         32768                       # Occupied blocks per task id
system.l2.tags.age_task_id_blocks_1024::0           72                       # Occupied blocks per task id
system.l2.tags.age_task_id_blocks_1024::1          651                       # Occupied blocks per task id
system.l2.tags.age_task_id_blocks_1024::2         6508                       # Occupied blocks per task id
system.l2.tags.age_task_id_blocks_1024::3        25535                       # Occupied blocks per task id
system.l2.tags.age_task_id_blocks_1024::4            2                       # Occupied blocks per task id
system.l2.tags.occ_task_id_percent::1024            1                       # Percentage of cache occupancy per task id
system.l2.tags.tag_accesses                   7470431                       # Number of tag accesses
system.l2.tags.data_accesses                  7470431                       # Number of data accesses
system.l2.tags.power_state.pwrStateResidencyTicks::UNDEFINED 205421287314                       # Cumulative time (in ticks) in various power states
system.mem_ctrls.avgPriority_.writebacks::samples   1454753.00                       # Average QoS priority value for accepted requests
system.mem_ctrls.avgPriority_.cpu.inst::samples       497.00                       # Average QoS priority value for accepted requests
system.mem_ctrls.avgPriority_.cpu.data::samples   1487614.00                       # Average QoS priority value for accepted requests
system.mem_ctrls.priorityMinLatency      0.000000018750                       # per QoS priority minimum request to response latency (s)
system.mem_ctrls.priorityMaxLatency      0.001663960048                       # per QoS priority maximum request to response latency (s)
system.mem_ctrls.numReadWriteTurnArounds        87876                       # Number of turnarounds from READ to WRITE
system.mem_ctrls.numWriteReadTurnArounds        87876                       # Number of turnarounds from WRITE to READ
system.mem_ctrls.numStayReadState             4394302                       # Number of times bus staying in READ state
system.mem_ctrls.numStayWriteState            1368463                       # Number of times bus staying in WRITE state
system.mem_ctrls.readReqs                     1488111                       # Number of read requests accepted
system.mem_ctrls.writeReqs                    1454753                       # Number of write requests accepted
system.mem_ctrls.readBursts                   1488111                       # Number of controller read bursts, including those serviced by the write queue
system.mem_ctrls.writeBursts                  1454753                       # Number of controller write bursts, including those merged in the write queue
system.mem_ctrls.servicedByWrQ                      0                       # Number of controller read bursts serviced by the write queue
system.mem_ctrls.mergedWrBursts                     0                       # Number of controller write bursts merged with an existing one
system.mem_ctrls.neitherReadNorWriteReqs            0                       # Number of requests that are neither read nor write
system.mem_ctrls.avgRdQLen                       1.00                       # Average read queue length when enqueuing
system.mem_ctrls.avgWrQLen                      25.04                       # Average write queue length when enqueuing
system.mem_ctrls.numRdRetry                         0                       # Number of times read queue was full causing retry
system.mem_ctrls.numWrRetry                         0                       # Number of times write queue was full causing retry
system.mem_ctrls.readPktSize::0                     0                       # Read request sizes (log2)
system.mem_ctrls.readPktSize::1                     0                       # Read request sizes (log2)
system.mem_ctrls.readPktSize::2                     0                       # Read request sizes (log2)
system.mem_ctrls.readPktSize::3                     0                       # Read request sizes (log2)
system.mem_ctrls.readPktSize::4                     0                       # Read request sizes (log2)
system.mem_ctrls.readPktSize::5                     0                       # Read request sizes (log2)
system.mem_ctrls.readPktSize::6               1488111                       # Read request sizes (log2)
system.mem_ctrls.writePktSize::0                    0                       # Write request sizes (log2)
system.mem_ctrls.writePktSize::1                    0                       # Write request sizes (log2)
system.mem_ctrls.writePktSize::2                    0                       # Write request sizes (log2)
system.mem_ctrls.writePktSize::3                    0                       # Write request sizes (log2)
system.mem_ctrls.writePktSize::4                    0                       # Write request sizes (log2)
system.mem_ctrls.writePktSize::5                    0                       # Write request sizes (log2)
system.mem_ctrls.writePktSize::6              1454753                       # Write request sizes (log2)
system.mem_ctrls.rdQLenPdf::0                 1488016                       # What read queue length does an incoming req see
system.mem_ctrls.rdQLenPdf::1                      89                       # What read queue length does an incoming req see
system.mem_ctrls.rdQLenPdf::2                       5                       # What read queue length does an incoming req see
system.mem_ctrls.rdQLenPdf::3                       1                       # What read queue length does an incoming req see
system.mem_ctrls.rdQLenPdf::4                       0                       # What read queue length does an incoming req see
system.mem_ctrls.rdQLenPdf::5                       0                       # What read queue length does an incoming req see
system.mem_ctrls.rdQLenPdf::6                       0                       # What read queue length does an incoming req see
system.mem_ctrls.rdQLenPdf::7                       0                       # What read queue length does an incoming req see
system.mem_ctrls.rdQLenPdf::8                       0                       # What read queue length does an incoming req see
system.mem_ctrls.rdQLenPdf::9                       0                       # What read queue length does an incoming req see
system.mem_ctrls.rdQLenPdf::10                      0                       # What read queue length does an incoming req see
system.mem_ctrls.rdQLenPdf::11                      0                       # What read queue length does an incoming req see
[...]
system.mem_ctrls.dram.bw_write::.writebacks    453235364                       # Write bandwidth from this memory (bytes/s)
system.mem_ctrls.dram.bw_write::total       453235364                       # Write bandwidth from this memory (bytes/s)
system.mem_ctrls.dram.bw_total::.writebacks    453235364                       # Total bandwidth to/from this memory (bytes/s)
system.mem_ctrls.dram.bw_total::.cpu.inst       154843                       # Total bandwidth to/from this memory (bytes/s)
system.mem_ctrls.dram.bw_total::.cpu.data    463473369                       # Total bandwidth to/from this memory (bytes/s)
system.mem_ctrls.dram.bw_total::total       916863576                       # Total bandwidth to/from this memory (bytes/s)
system.mem_ctrls.dram.readBursts              1488111                       # Number of DRAM read bursts
system.mem_ctrls.dram.writeBursts             1454723                       # Number of DRAM write bursts
system.mem_ctrls.dram.perBankRdBursts::0        93028                       # Per bank write bursts
system.mem_ctrls.dram.perBankRdBursts::1        92979                       # Per bank write bursts
system.mem_ctrls.dram.perBankRdBursts::2        92998                       # Per bank write bursts
system.mem_ctrls.dram.perBankRdBursts::3        92955                       # Per bank write bursts
system.mem_ctrls.dram.perBankRdBursts::4        92980                       # Per bank write bursts
system.mem_ctrls.dram.perBankRdBursts::5        93010                       # Per bank write bursts
system.mem_ctrls.dram.perBankRdBursts::6        93061                       # Per bank write bursts
system.mem_ctrls.dram.perBankRdBursts::7        93077                       # Per bank write bursts
system.mem_ctrls.dram.perBankRdBursts::8        93154                       # Per bank write bursts
system.mem_ctrls.dram.perBankRdBursts::9        93078                       # Per bank write bursts
system.mem_ctrls.dram.perBankRdBursts::10        92959                       # Per bank write bursts
system.mem_ctrls.dram.perBankRdBursts::11        92953                       # Per bank write bursts
system.mem_ctrls.dram.perBankRdBursts::12        92995                       # Per bank write bursts
system.mem_ctrls.dram.perBankRdBursts::13        92952                       # Per bank write bursts
system.mem_ctrls.dram.perBankRdBursts::14        92960                       # Per bank write bursts
system.mem_ctrls.dram.perBankRdBursts::15        92972                       # Per bank write bursts
system.mem_ctrls.dram.perBankWrBursts::0        90884                       # Per bank write bursts
system.mem_ctrls.dram.perBankWrBursts::1        90920                       # Per bank write bursts
system.mem_ctrls.dram.perBankWrBursts::2        90906                       # Per bank write bursts
system.mem_ctrls.dram.perBankWrBursts::3        90895                       # Per bank write bursts
system.mem_ctrls.dram.perBankWrBursts::4        90886                       # Per bank write bursts
system.mem_ctrls.dram.perBankWrBursts::5        90945                       # Per bank write bursts
system.mem_ctrls.dram.perBankWrBursts::6        91008                       # Per bank write bursts
system.mem_ctrls.dram.perBankWrBursts::7        91008                       # Per bank write bursts
system.mem_ctrls.dram.perBankWrBursts::8        91008                       # Per bank write bursts
system.mem_ctrls.dram.perBankWrBursts::9        90983                       # Per bank write bursts
system.mem_ctrls.dram.perBankWrBursts::10        90880                       # Per bank write bursts
system.mem_ctrls.dram.perBankWrBursts::11        90880                       # Per bank write bursts
system.mem_ctrls.dram.perBankWrBursts::12        90880                       # Per bank write bursts
system.mem_ctrls.dram.perBankWrBursts::13        90880                       # Per bank write bursts
system.mem_ctrls.dram.perBankWrBursts::14        90880                       # Per bank write bursts
system.mem_ctrls.dram.perBankWrBursts::15        90880                       # Per bank write bursts
system.mem_ctrls.dram.totQLat             15807534205                       # Total ticks spent queuing
system.mem_ctrls.dram.totBusLat            7440555000                       # Total ticks spent in databus transfers
system.mem_ctrls.dram.totMemAccLat        43709615455                       # Total ticks spent from burst creation until serviced by the DRAM
system.mem_ctrls.dram.avgQLat                10622.55                       # Average queueing delay per DRAM burst
system.mem_ctrls.dram.avgBusLat               5000.00                       # Average bus latency per DRAM burst
system.mem_ctrls.dram.avgMemAccLat           29372.55                       # Average memory access latency per DRAM burst
system.mem_ctrls.dram.readRowHits             1339089                       # Number of row buffer hits during reads
system.mem_ctrls.dram.writeRowHits            1326267                       # Number of row buffer hits during writes
system.mem_ctrls.dram.readRowHitRate            89.99                       # Row buffer hit rate for reads
system.mem_ctrls.dram.writeRowHitRate           91.17                       # Row buffer hit rate for writes
system.mem_ctrls.dram.bytesPerActivate::samples       277476                       # Bytes accessed per row activation
system.mem_ctrls.dram.bytesPerActivate::mean   678.763136                       # Bytes accessed per row activation
system.mem_ctrls.dram.bytesPerActivate::gmean   457.989254                       # Bytes accessed per row activation
system.mem_ctrls.dram.bytesPerActivate::stdev   405.118440                       # Bytes accessed per row activation
system.mem_ctrls.dram.bytesPerActivate::0-127        49302     17.77%     17.77% # Bytes accessed per row activation
system.mem_ctrls.dram.bytesPerActivate::128-255        23587      8.50%     26.27% # Bytes accessed per row activation
system.mem_ctrls.dram.bytesPerActivate::256-383        11449      4.13%     30.39% # Bytes accessed per row activation
system.mem_ctrls.dram.bytesPerActivate::384-511        11521      4.15%     34.55% # Bytes accessed per row activation
system.mem_ctrls.dram.bytesPerActivate::512-639        10050      3.62%     38.17% # Bytes accessed per row activation
system.mem_ctrls.dram.bytesPerActivate::640-767        11175      4.03%     42.20% # Bytes accessed per row activation
system.mem_ctrls.dram.bytesPerActivate::768-895        10742      3.87%     46.07% # Bytes accessed per row activation
system.mem_ctrls.dram.bytesPerActivate::896-1023        11438      4.12%     50.19% # Bytes accessed per row activation
system.mem_ctrls.dram.bytesPerActivate::1024-1151       138212     49.81%    100.00% # Bytes accessed per row activation
system.mem_ctrls.dram.bytesPerActivate::total       277476                       # Bytes accessed per row activation
system.mem_ctrls.dram.bytesRead              95239104                       # Total number of bytes read from DRAM
system.mem_ctrls.dram.bytesWritten           93102272                       # Total number of bytes written to DRAM
system.mem_ctrls.dram.avgRdBW              463.628211                       # Average DRAM read bandwidth in MiBytes/s
system.mem_ctrls.dram.avgWrBW              453.226018                       # Average DRAM write bandwidth in MiBytes/s
system.mem_ctrls.dram.peakBW                 12800.00                       # Theoretical peak bandwidth in MiByte/s
system.mem_ctrls.dram.busUtil                    7.16                       # Data bus utilization in percentage
system.mem_ctrls.dram.busUtilRead                3.62                       # Data bus utilization in percentage for reads
system.mem_ctrls.dram.busUtilWrite               3.54                       # Data bus utilization in percentage for writes
system.mem_ctrls.dram.pageHitRate               90.57                       # Row buffer hit rate, read and write combined
system.mem_ctrls.dram.power_state.pwrStateResidencyTicks::UNDEFINED 205421287314                       # Cumulative time (in ticks) in various power states
system.mem_ctrls.dram.rank0.actEnergy       991560360                       # Energy for activate commands per rank (pJ)
system.mem_ctrls.dram.rank0.preEnergy       527026830                       # Energy for precharge commands per rank (pJ)
system.mem_ctrls.dram.rank0.readEnergy     5312788320                       # Energy for read commands per rank (pJ)
system.mem_ctrls.dram.rank0.writeEnergy    3797299440                       # Energy for write commands per rank (pJ)
system.mem_ctrls.dram.rank0.refreshEnergy 16215432480.000002                       # Energy for refresh commands per rank (pJ)
system.mem_ctrls.dram.rank0.actBackEnergy  48390820320                       # Energy for active background per rank (pJ)
system.mem_ctrls.dram.rank0.preBackEnergy  38131609920                       # Energy for precharge background per rank (pJ)
system.mem_ctrls.dram.rank0.actPowerDownEnergy            0                       # Energy for active power-down per rank (pJ)
system.mem_ctrls.dram.rank0.prePowerDownEnergy            0                       # Energy for precharge power-down per rank (pJ)
system.mem_ctrls.dram.rank0.selfRefreshEnergy            0                       # Energy for self refresh per rank (pJ)
system.mem_ctrls.dram.rank0.totalEnergy  113366537670                       # Total energy per rank (pJ)
system.mem_ctrls.dram.rank0.averagePower   551.873368                       # Core power per rank (mW)
system.mem_ctrls.dram.rank0.totalIdleTime            0                       # Total Idle time Per DRAM Rank
system.mem_ctrls.dram.rank0.pwrStateTime::IDLE  97616413335                       # Time in different power states
system.mem_ctrls.dram.rank0.pwrStateTime::REF   6859320000                       # Time in different power states
system.mem_ctrls.dram.rank0.pwrStateTime::SREF            0                       # Time in different power states
system.mem_ctrls.dram.rank0.pwrStateTime::PRE_PDN            0                       # Time in different power states
system.mem_ctrls.dram.rank0.pwrStateTime::ACT 100945553979                       # Time in different power states
system.mem_ctrls.dram.rank0.pwrStateTime::ACT_PDN            0                       # Time in different power states
system.mem_ctrls.dram.rank1.actEnergy       989632560                       # Energy for activate commands per rank (pJ)
system.mem_ctrls.dram.rank1.preEnergy       525994590                       # Energy for precharge commands per rank (pJ)
system.mem_ctrls.dram.rank1.readEnergy     5312324220                       # Energy for read commands per rank (pJ)
system.mem_ctrls.dram.rank1.writeEnergy    3796354620                       # Energy for write commands per rank (pJ)
system.mem_ctrls.dram.rank1.refreshEnergy 16215432480.000002                       # Energy for refresh commands per rank (pJ)
system.mem_ctrls.dram.rank1.actBackEnergy  48256705590                       # Energy for active background per rank (pJ)
system.mem_ctrls.dram.rank1.preBackEnergy  38244548640                       # Energy for precharge background per rank (pJ)
system.mem_ctrls.dram.rank1.actPowerDownEnergy            0                       # Energy for active power-down per rank (pJ)
system.mem_ctrls.dram.rank1.prePowerDownEnergy            0                       # Energy for precharge power-down per rank (pJ)
system.mem_ctrls.dram.rank1.selfRefreshEnergy            0                       # Energy for self refresh per rank (pJ)
system.mem_ctrls.dram.rank1.totalEnergy  113340992700                       # Total energy per rank (pJ)
system.mem_ctrls.dram.rank1.averagePower   551.749014                       # Core power per rank (mW)
system.mem_ctrls.dram.rank1.totalIdleTime            0                       # Total Idle time Per DRAM Rank
system.mem_ctrls.dram.rank1.pwrStateTime::IDLE  97909401452                       # Time in different power states
system.mem_ctrls.dram.rank1.pwrStateTime::REF   6859320000                       # Time in different power states
system.mem_ctrls.dram.rank1.pwrStateTime::SREF            0                       # Time in different power states
system.mem_ctrls.dram.rank1.pwrStateTime::PRE_PDN            0                       # Time in different power states
system.mem_ctrls.dram.rank1.pwrStateTime::ACT 100652565862                       # Time in different power states
system.mem_ctrls.dram.rank1.pwrStateTime::ACT_PDN            0                       # Time in different power states
system.mem_ctrls.power_state.pwrStateResidencyTicks::UNDEFINED 205421287314                       # Cumulative time (in ticks) in various power states
system.membus.trans_dist::ReadResp                608                       # Transaction distribution
system.membus.trans_dist::WritebackDirty      1454753                       # Transaction distribution
system.membus.trans_dist::CleanEvict              103                       # Transaction distribution
system.membus.trans_dist::ReadExReq           1487503                       # Transaction distribution
system.membus.trans_dist::ReadExResp          1487503                       # Transaction distribution
system.membus.trans_dist::ReadSharedReq           608                       # Transaction distribution
system.membus.pkt_count_system.l2.mem_side_port::system.mem_ctrls.port      4431078                       # Packet count per connected requestor and responder (bytes)
system.membus.pkt_count::total                4431078                       # Packet count per connected requestor and responder (bytes)
system.membus.pkt_size_system.l2.mem_side_port::system.mem_ctrls.port    188343296                       # Cumulative packet size per connected requestor and responder (bytes)
system.membus.pkt_size::total               188343296                       # Cumulative packet size per connected requestor and responder (bytes)
system.membus.snoops                                0                       # Total snoops (count)
system.membus.snoopTraffic                          0                       # Total snoop traffic (bytes)
system.membus.snoop_fanout::samples           1488111                       # Request fanout histogram
system.membus.snoop_fanout::mean                    0                       # Request fanout histogram
system.membus.snoop_fanout::stdev                   0                       # Request fanout histogram
system.membus.snoop_fanout::underflows              0      0.00%      0.00% # Request fanout histogram
system.membus.snoop_fanout::0                 1488111    100.00%    100.00% # Request fanout histogram
system.membus.snoop_fanout::1                       0      0.00%    100.00% # Request fanout histogram
system.membus.snoop_fanout::overflows               0      0.00%    100.00% # Request fanout histogram
system.membus.snoop_fanout::min_value               0                       # Request fanout histogram
system.membus.snoop_fanout::max_value               0                       # Request fanout histogram
system.membus.snoop_fanout::total             1488111                       # Request fanout histogram
system.membus.power_state.pwrStateResidencyTicks::UNDEFINED 205421287314                       # Cumulative time (in ticks) in various power states
system.membus.reqLayer0.occupancy         10007135705                       # Layer occupancy (ticks)
system.membus.reqLayer0.utilization               4.9                       # Layer utilization (%)
system.membus.respLayer1.occupancy         7858046409                       # Layer occupancy (ticks)
system.membus.respLayer1.utilization              3.8                       # Layer utilization (%)
system.tol2bus.trans_dist::ReadResp              6455                       # Transaction distribution
system.tol2bus.trans_dist::WritebackDirty      2947486                       # Transaction distribution
system.tol2bus.trans_dist::WritebackClean           32                       # Transaction distribution
system.tol2bus.trans_dist::CleanEvict            3603                       # Transaction distribution
system.tol2bus.trans_dist::ReadExReq          1491859                       # Transaction distribution
system.tol2bus.trans_dist::ReadExResp         1491859                       # Transaction distribution
system.tol2bus.trans_dist::ReadCleanReq           520                       # Transaction distribution
system.tol2bus.trans_dist::ReadSharedReq         5935                       # Transaction distribution
system.tol2bus.pkt_count_system.cpu.icache.mem_side_port::system.l2.cpu_side_port         1072                       # Packet count per connected requestor and responder (bytes)
system.tol2bus.pkt_count_system.cpu.dcache.mem_side_port::system.l2.cpu_side_port      4491334                       # Packet count per connected requestor and responder (bytes)
system.tol2bus.pkt_count::total               4492406                       # Packet count per connected requestor and responder (bytes)
system.tol2bus.pkt_size_system.cpu.icache.mem_side_port::system.l2.cpu_side_port        35328                       # Cumulative packet size per connected requestor and responder (bytes)
system.tol2bus.pkt_size_system.cpu.dcache.mem_side_port::system.l2.cpu_side_port    191393728                       # Cumulative packet size per connected requestor and responder (bytes)
system.tol2bus.pkt_size::total              191429056                       # Cumulative packet size per connected requestor and responder (bytes)
system.tol2bus.snoops                         1455343                       # Total snoops (count)
system.tol2bus.snoopTraffic                  93104192                       # Total snoop traffic (bytes)
system.tol2bus.snoop_fanout::samples          2953657                       # Request fanout histogram
system.tol2bus.snoop_fanout::mean            0.001158                       # Request fanout histogram
system.tol2bus.snoop_fanout::stdev           0.034008                       # Request fanout histogram
system.tol2bus.snoop_fanout::underflows             0      0.00%      0.00% # Request fanout histogram
system.tol2bus.snoop_fanout::0                2950237     99.88%     99.88% # Request fanout histogram
system.tol2bus.snoop_fanout::1                   3420      0.12%    100.00% # Request fanout histogram
system.tol2bus.snoop_fanout::2                      0      0.00%    100.00% # Request fanout histogram
system.tol2bus.snoop_fanout::overflows              0      0.00%    100.00% # Request fanout histogram
system.tol2bus.snoop_fanout::min_value              0                       # Request fanout histogram
system.tol2bus.snoop_fanout::max_value              1                       # Request fanout histogram
system.tol2bus.snoop_fanout::total            2953657                       # Request fanout histogram
system.tol2bus.power_state.pwrStateResidencyTicks::UNDEFINED 205421287314                       # Cumulative time (in ticks) in various power states
system.tol2bus.reqLayer0.occupancy         3988407874                       # Layer occupancy (ticks)
system.tol2bus.reqLayer0.utilization              1.9                       # Layer utilization (%)
system.tol2bus.respLayer0.occupancy           1041186                       # Layer occupancy (ticks)
system.tol2bus.respLayer0.utilization             0.0                       # Layer utilization (%)
system.tol2bus.respLayer1.occupancy        2997087126                       # Layer occupancy (ticks)
system.tol2bus.respLayer1.utilization             1.5                       # Layer utilization (%)
system.voltage_domain.voltage                       1                       # Voltage in Volts

---------- End Simulation Statistics   ----------
